1ej1_11.pdb
  MOE2019           3D

 63 62  0  0  0  0  0  0  0  0999 V2000
    3.7050   -2.3780    0.4260 N   0  0  0  0  0  0  0  0  0  0  0  0
    3.7360   -3.0740    1.1580 H   0  0  0  0  0  0  0  0  0  0  0  0
    2.8870   -1.8000    0.5570 H   0  0  0  0  0  0  0  0  0  0  0  0
    4.8900   -1.5320    0.4450 C   0  0  0  0  0  0  0  0  0  0  0  0
    6.0640   -2.4550    0.1140 C   0  0  0  0  0  0  0  0  0  0  0  0
    7.2980   -1.7420    0.1410 O   0  0  0  0  0  0  0  0  0  0  0  0
    8.4130   -2.5730   -0.1390 C   0  0  0  0  0  0  0  0  0  0  0  0
    9.6720   -1.7120   -0.1060 C   0  0  0  0  0  0  0  0  0  0  0  0
   10.8240   -2.5370   -0.2240 O   0  0  0  0  0  0  0  0  0  0  0  0
   12.0250   -1.7760   -0.1830 C   0  0  0  0  0  0  0  0  0  0  0  0
   13.2290   -2.7100   -0.2660 C   0  0  0  0  0  0  0  0  0  0  0  0
   14.4160   -1.9330   -0.1790 O   0  0  0  0  0  0  0  0  0  0  0  0
   15.5950   -2.7260   -0.2270 C   0  0  0  0  0  0  0  0  0  0  0  0
   16.8110   -1.8080   -0.1270 C   0  0  0  0  0  0  0  0  0  0  0  0
   17.9990   -2.5870   -0.1710 O   0  0  0  0  0  0  0  0  0  0  0  0
   19.1700   -1.7860   -0.0840 C   0  0  0  0  0  0  0  0  0  0  0  0
   20.4000   -2.6880   -0.1310 C   0  0  0  0  0  0  0  0  0  0  0  0
   21.5730   -1.8890   -0.0350 O   0  0  0  0  0  0  0  0  0  0  0  0
   22.7590   -2.6710   -0.0700 C   0  0  0  0  0  0  0  0  0  0  0  0
   23.9760   -1.7560    0.0540 C   0  0  0  0  0  0  0  0  0  0  0  0
   25.1510   -2.5560    0.0780 O   0  0  0  0  0  0  0  0  0  0  0  0
   26.3400   -1.7860    0.2010 C   0  0  0  0  0  0  0  0  0  0  0  0
   27.5330   -2.7380    0.2470 C   0  0  0  0  0  0  0  0  0  0  0  0
   28.7430   -1.9970    0.3590 O   0  0  0  0  0  0  0  0  0  0  0  0
   29.8750   -2.8480    0.4380 C   0  0  0  0  0  0  0  0  0  0  0  0
   31.0710   -1.8990    0.5880 C   0  0  0  0  0  0  0  0  0  0  0  0
   32.3010   -2.7760    0.5770 C   0  0  0  0  0  0  0  0  0  0  0  0
   32.4030   -3.7630    1.2730 O   0  0  0  0  0  0  0  0  0  0  0  0
   33.3360   -2.3870   -0.2350 N   0  0  0  0  0  0  0  0  0  0  0  0
    4.8150   -0.7450   -0.3080 H   0  0  0  0  0  0  0  0  0  0  0  0
    5.0290   -1.0810    1.4310 H   0  0  0  0  0  0  0  0  0  0  0  0
    5.8920   -2.8780   -0.8760 H   0  0  0  0  0  0  0  0  0  0  0  0
    6.0840   -3.2610    0.8480 H   0  0  0  0  0  0  0  0  0  0  0  0
    8.4990   -3.3550    0.6160 H   0  0  0  0  0  0  0  0  0  0  0  0
    8.3150   -3.0250   -1.1270 H   0  0  0  0  0  0  0  0  0  0  0  0
    9.6930   -1.1710    0.8410 H   0  0  0  0  0  0  0  0  0  0  0  0
    9.6270   -0.9960   -0.9280 H   0  0  0  0  0  0  0  0  0  0  0  0
   12.0610   -1.0810   -1.0240 H   0  0  0  0  0  0  0  0  0  0  0  0
   12.0850   -1.2150    0.7510 H   0  0  0  0  0  0  0  0  0  0  0  0
   13.1950   -3.2490   -1.2130 H   0  0  0  0  0  0  0  0  0  0  0  0
   13.1790   -3.4210    0.5600 H   0  0  0  0  0  0  0  0  0  0  0  0
   15.6150   -3.4280    0.6080 H   0  0  0  0  0  0  0  0  0  0  0  0
   15.6460   -3.2760   -1.1670 H   0  0  0  0  0  0  0  0  0  0  0  0
   16.7550   -1.2550    0.8130 H   0  0  0  0  0  0  0  0  0  0  0  0
   16.7870   -1.1050   -0.9610 H   0  0  0  0  0  0  0  0  0  0  0  0
   19.2160   -1.0870   -0.9200 H   0  0  0  0  0  0  0  0  0  0  0  0
   19.1800   -1.2290    0.8540 H   0  0  0  0  0  0  0  0  0  0  0  0
   20.3930   -3.2410   -1.0720 H   0  0  0  0  0  0  0  0  0  0  0  0
   20.3510   -3.3900    0.7020 H   0  0  0  0  0  0  0  0  0  0  0  0
   22.7700   -3.3780    0.7600 H   0  0  0  0  0  0  0  0  0  0  0  0
   22.8270   -3.2170   -1.0120 H   0  0  0  0  0  0  0  0  0  0  0  0
   23.8890   -1.1810    0.9770 H   0  0  0  0  0  0  0  0  0  0  0  0
   23.9940   -1.0750   -0.7980 H   0  0  0  0  0  0  0  0  0  0  0  0
   26.4520   -1.1190   -0.6550 H   0  0  0  0  0  0  0  0  0  0  0  0
   26.3220   -1.2000    1.1210 H   0  0  0  0  0  0  0  0  0  0  0  0
   27.5380   -3.3340   -0.6660 H   0  0  0  0  0  0  0  0  0  0  0  0
   27.4140   -3.3990    1.1070 H   0  0  0  0  0  0  0  0  0  0  0  0
   29.8080   -3.5060    1.3080 H   0  0  0  0  0  0  0  0  0  0  0  0
   29.9760   -3.4410   -0.4740 H   0  0  0  0  0  0  0  0  0  0  0  0
   31.0070   -1.4010    1.5450 H   0  0  0  0  0  0  0  0  0  0  0  0
   31.0860   -1.2160   -0.2480 H   0  0  0  0  0  0  0  0  0  0  0  0
   33.2180   -1.4930   -0.7250 H   0  0  0  0  0  0  0  0  0  0  0  0
   34.1680   -2.9490   -0.3450 H   0  0  0  0  0  0  0  0  0  0  0  0
  1  2  1  0  0  0  0
  1  3  1  0  0  0  0
  1  4  1  0  0  0  0
  4  5  1  0  0  0  0
  4 30  1  0  0  0  0
  4 31  1  0  0  0  0
  5  6  1  0  0  0  0
  5 32  1  0  0  0  0
  5 33  1  0  0  0  0
  6  7  1  0  0  0  0
  7  8  1  0  0  0  0
  7 34  1  0  0  0  0
  7 35  1  0  0  0  0
  8  9  1  0  0  0  0
  8 36  1  0  0  0  0
  8 37  1  0  0  0  0
  9 10  1  0  0  0  0
 10 11  1  0  0  0  0
 10 38  1  0  0  0  0
 10 39  1  0  0  0  0
 11 12  1  0  0  0  0
 11 40  1  0  0  0  0
 11 41  1  0  0  0  0
 12 13  1  0  0  0  0
 13 14  1  0  0  0  0
 13 42  1  0  0  0  0
 13 43  1  0  0  0  0
 14 15  1  0  0  0  0
 14 44  1  0  0  0  0
 14 45  1  0  0  0  0
 15 16  1  0  0  0  0
 16 17  1  0  0  0  0
 16 46  1  0  0  0  0
 16 47  1  0  0  0  0
 17 18  1  0  0  0  0
 17 48  1  0  0  0  0
 17 49  1  0  0  0  0
 18 19  1  0  0  0  0
 19 20  1  0  0  0  0
 19 50  1  0  0  0  0
 19 51  1  0  0  0  0
 20 21  1  0  0  0  0
 20 52  1  0  0  0  0
 20 53  1  0  0  0  0
 21 22  1  0  0  0  0
 22 23  1  0  0  0  0
 22 54  1  0  0  0  0
 22 55  1  0  0  0  0
 23 24  1  0  0  0  0
 23 56  1  0  0  0  0
 23 57  1  0  0  0  0
 24 25  1  0  0  0  0
 25 26  1  0  0  0  0
 25 58  1  0  0  0  0
 25 59  1  0  0  0  0
 26 27  1  0  0  0  0
 26 60  1  0  0  0  0
 26 61  1  0  0  0  0
 27 28  2  0  0  0  0
 27 29  1  0  0  0  0
 29 62  1  0  0  0  0
 29 63  1  0  0  0  0
M  END
