1ej1_7.pdb
  MOE2019           3D

 23 22  0  0  0  0  0  0  0  0999 V2000
   -0.0760    1.5210    0.0000 N   0  0  0  0  0  0  0  0  0  0  0  0
    1.2330    2.2540    0.0000 C   0  0  0  0  0  0  0  0  0  0  0  0
    2.5210    1.4860    0.0000 C   0  0  0  0  0  0  0  0  0  0  0  0
    3.8310    2.2180    0.0000 C   0  0  0  0  0  0  0  0  0  0  0  0
    5.1190    1.4510    0.0000 C   0  0  0  0  0  0  0  0  0  0  0  0
    6.4280    2.1830    0.0000 C   0  0  0  0  0  0  0  0  0  0  0  0
    7.7170    1.4160    0.0000 C   0  0  0  0  0  0  0  0  0  0  0  0
    7.6970   -0.0840    0.0000 O   0  0  0  0  0  0  0  0  0  0  0  0
    9.0260    2.1480    0.0000 N   0  0  0  0  0  0  0  0  0  0  0  0
   -0.0840    0.9380    0.8250 H   0  0  0  0  0  0  0  0  0  0  0  0
   -0.8420    2.1780    0.0310 H   0  0  0  0  0  0  0  0  0  0  0  0
    1.2420    2.8830   -0.8900 H   0  0  0  0  0  0  0  0  0  0  0  0
    1.2420    2.8830    0.8900 H   0  0  0  0  0  0  0  0  0  0  0  0
    2.5120    0.8570    0.8900 H   0  0  0  0  0  0  0  0  0  0  0  0
    2.5120    0.8570   -0.8900 H   0  0  0  0  0  0  0  0  0  0  0  0
    3.8400    2.8470   -0.8900 H   0  0  0  0  0  0  0  0  0  0  0  0
    3.8400    2.8470    0.8900 H   0  0  0  0  0  0  0  0  0  0  0  0
    5.1100    0.8220   -0.8900 H   0  0  0  0  0  0  0  0  0  0  0  0
    5.1100    0.8220    0.8900 H   0  0  0  0  0  0  0  0  0  0  0  0
    6.4360    2.8120    0.8900 H   0  0  0  0  0  0  0  0  0  0  0  0
    6.4360    2.8120   -0.8900 H   0  0  0  0  0  0  0  0  0  0  0  0
    9.0400    3.1580    0.0000 H   0  0  0  0  0  0  0  0  0  0  0  0
    9.8940    1.6310    0.0000 H   0  0  0  0  0  0  0  0  0  0  0  0
  1  2  1  0  0  0  0
  1 10  1  0  0  0  0
  1 11  1  0  0  0  0
  2  3  1  0  0  0  0
  2 12  1  0  0  0  0
  2 13  1  0  0  0  0
  3  4  1  0  0  0  0
  3 14  1  0  0  0  0
  3 15  1  0  0  0  0
  4  5  1  0  0  0  0
  4 16  1  0  0  0  0
  4 17  1  0  0  0  0
  5  6  1  0  0  0  0
  5 18  1  0  0  0  0
  5 19  1  0  0  0  0
  6  7  1  0  0  0  0
  6 20  1  0  0  0  0
  6 21  1  0  0  0  0
  7  8  2  0  0  0  0
  7  9  1  0  0  0  0
  9 22  1  0  0  0  0
  9 23  1  0  0  0  0
M  END
