1ej1_4.pdb
  MOE2019           3D

 35 34  0  0  0  0  0  0  0  0999 V2000
   -3.4330    3.4820    0.0000 N   0  0  0  0  0  0  0  0  0  0  0  0
   -3.4330    4.9820    0.0000 C   0  0  0  0  0  0  0  0  0  0  0  0
   -4.7320    5.7320    0.0000 O   0  0  0  0  0  0  0  0  0  0  0  0
   -2.1340    5.7320    0.0000 C   0  0  0  0  0  0  0  0  0  0  0  0
   -0.8350    4.9820    0.0000 C   0  0  0  0  0  0  0  0  0  0  0  0
    0.4640    5.7320    0.0000 C   0  0  0  0  0  0  0  0  0  0  0  0
    0.4640    7.2320    0.0000 O   0  0  0  0  0  0  0  0  0  0  0  0
    1.7630    4.9820    0.0000 N   0  0  0  0  0  0  0  0  0  0  0  0
    3.0620    5.7320    0.0000 C   0  0  0  0  0  0  0  0  0  0  0  0
    4.3610    4.9820    0.0000 C   0  0  0  0  0  0  0  0  0  0  0  0
    5.6610    5.7320    0.0000 C   0  0  0  0  0  0  0  0  0  0  0  0
    6.9600    4.9820    0.0000 C   0  0  0  0  0  0  0  0  0  0  0  0
    8.2590    5.7320    0.0000 C   0  0  0  0  0  0  0  0  0  0  0  0
    9.5580    4.9820    0.0000 C   0  0  0  0  0  0  0  0  0  0  0  0
    9.5580    3.4820    0.0000 O   0  0  0  0  0  0  0  0  0  0  0  0
   10.8570    5.7320    0.0000 N   0  0  0  0  0  0  0  0  0  0  0  0
   -2.5580    2.9770    0.0000 H   0  0  0  0  0  0  0  0  0  0  0  0
   -4.3080    2.9770    0.0000 H   0  0  0  0  0  0  0  0  0  0  0  0
   -2.1340    6.3610   -0.8900 H   0  0  0  0  0  0  0  0  0  0  0  0
   -2.1340    6.3610    0.8900 H   0  0  0  0  0  0  0  0  0  0  0  0
   -0.8350    4.3530   -0.8900 H   0  0  0  0  0  0  0  0  0  0  0  0
   -0.8350    4.3530    0.8900 H   0  0  0  0  0  0  0  0  0  0  0  0
    1.7630    3.9720    0.0000 H   0  0  0  0  0  0  0  0  0  0  0  0
    3.0620    6.3610   -0.8900 H   0  0  0  0  0  0  0  0  0  0  0  0
    3.0620    6.3610    0.8900 H   0  0  0  0  0  0  0  0  0  0  0  0
    4.3610    4.3530    0.8900 H   0  0  0  0  0  0  0  0  0  0  0  0
    4.3610    4.3530   -0.8900 H   0  0  0  0  0  0  0  0  0  0  0  0
    5.6610    6.3610   -0.8900 H   0  0  0  0  0  0  0  0  0  0  0  0
    5.6610    6.3610    0.8900 H   0  0  0  0  0  0  0  0  0  0  0  0
    6.9600    4.3530   -0.8900 H   0  0  0  0  0  0  0  0  0  0  0  0
    6.9600    4.3530    0.8900 H   0  0  0  0  0  0  0  0  0  0  0  0
    8.2590    6.3610    0.8900 H   0  0  0  0  0  0  0  0  0  0  0  0
    8.2590    6.3610   -0.8900 H   0  0  0  0  0  0  0  0  0  0  0  0
   10.8570    6.7420    0.0000 H   0  0  0  0  0  0  0  0  0  0  0  0
   11.7320    5.2270    0.0000 H   0  0  0  0  0  0  0  0  0  0  0  0
  1  2  1  0  0  0  0
  1 17  1  0  0  0  0
  1 18  1  0  0  0  0
  2  3  2  0  0  0  0
  2  4  1  0  0  0  0
  4  5  1  0  0  0  0
  4 19  1  0  0  0  0
  4 20  1  0  0  0  0
  5  6  1  0  0  0  0
  5 21  1  0  0  0  0
  5 22  1  0  0  0  0
  6  7  2  0  0  0  0
  6  8  1  0  0  0  0
  8  9  1  0  0  0  0
  8 23  1  0  0  0  0
  9 10  1  0  0  0  0
  9 24  1  0  0  0  0
  9 25  1  0  0  0  0
 10 11  1  0  0  0  0
 10 26  1  0  0  0  0
 10 27  1  0  0  0  0
 11 12  1  0  0  0  0
 11 28  1  0  0  0  0
 11 29  1  0  0  0  0
 12 13  1  0  0  0  0
 12 30  1  0  0  0  0
 12 31  1  0  0  0  0
 13 14  1  0  0  0  0
 13 32  1  0  0  0  0
 13 33  1  0  0  0  0
 14 15  2  0  0  0  0
 14 16  1  0  0  0  0
 16 34  1  0  0  0  0
 16 35  1  0  0  0  0
M  END
