1err_27.pdb
  MOE2019           3D

 20 19  0  0  0  0  0  0  0  0999 V2000
    2.2050   -4.6390    0.0000 C   0  0  0  0  0  0  0  0  0  0  0  0
    1.4660   -5.9440    0.0000 C   0  0  0  0  0  0  0  0  0  0  0  0
   -0.0340   -5.9570    0.0000 C   0  0  0  0  0  0  0  0  0  0  0  0
   -0.7730   -7.2620    0.0000 C   0  0  0  0  0  0  0  0  0  0  0  0
   -2.2730   -7.2750    0.0000 C   0  0  0  0  0  0  0  0  0  0  0  0
   -3.0120   -8.5800    0.0000 C   0  0  0  0  0  0  0  0  0  0  0  0
    1.8860   -4.0970    0.8900 H   0  0  0  0  0  0  0  0  0  0  0  0
    1.8860   -4.0970   -0.8900 H   0  0  0  0  0  0  0  0  0  0  0  0
    3.2880   -4.7640    0.0000 H   0  0  0  0  0  0  0  0  0  0  0  0
    1.7850   -6.4860   -0.8900 H   0  0  0  0  0  0  0  0  0  0  0  0
    1.7850   -6.4860    0.8900 H   0  0  0  0  0  0  0  0  0  0  0  0
   -0.3530   -5.4150   -0.8900 H   0  0  0  0  0  0  0  0  0  0  0  0
   -0.3530   -5.4150    0.8900 H   0  0  0  0  0  0  0  0  0  0  0  0
   -0.4540   -7.8040    0.8900 H   0  0  0  0  0  0  0  0  0  0  0  0
   -0.4540   -7.8040   -0.8900 H   0  0  0  0  0  0  0  0  0  0  0  0
   -2.5920   -6.7330   -0.8900 H   0  0  0  0  0  0  0  0  0  0  0  0
   -2.5920   -6.7330    0.8900 H   0  0  0  0  0  0  0  0  0  0  0  0
   -2.6930   -9.1220    0.8900 H   0  0  0  0  0  0  0  0  0  0  0  0
   -2.6930   -9.1220   -0.8900 H   0  0  0  0  0  0  0  0  0  0  0  0
   -4.0950   -8.4550    0.0000 H   0  0  0  0  0  0  0  0  0  0  0  0
  1  2  1  0  0  0  0
  1  7  1  0  0  0  0
  1  8  1  0  0  0  0
  1  9  1  0  0  0  0
  2  3  1  0  0  0  0
  2 10  1  0  0  0  0
  2 11  1  0  0  0  0
  3  4  1  0  0  0  0
  3 12  1  0  0  0  0
  3 13  1  0  0  0  0
  4  5  1  0  0  0  0
  4 14  1  0  0  0  0
  4 15  1  0  0  0  0
  5  6  1  0  0  0  0
  5 16  1  0  0  0  0
  5 17  1  0  0  0  0
  6 18  1  0  0  0  0
  6 19  1  0  0  0  0
  6 20  1  0  0  0  0
M  END
