1err_12.pdb
  MOE2019           3D

 20 19  0  0  0  0  0  0  0  0999 V2000
    0.9860   -5.3750    0.0000 C   0  0  0  0  0  0  0  0  0  0  0  0
    0.2250   -4.0820    0.0000 C   0  0  0  0  0  0  0  0  0  0  0  0
   -1.2750   -4.0950    0.0000 C   0  0  0  0  0  0  0  0  0  0  0  0
   -2.0360   -2.8020    0.0000 C   0  0  0  0  0  0  0  0  0  0  0  0
   -3.5350   -2.8140    0.0000 C   0  0  0  0  0  0  0  0  0  0  0  0
   -4.2960   -1.5210    0.0000 C   0  0  0  0  0  0  0  0  0  0  0  0
    0.6760   -5.9230   -0.8900 H   0  0  0  0  0  0  0  0  0  0  0  0
    0.6760   -5.9230    0.8900 H   0  0  0  0  0  0  0  0  0  0  0  0
    2.0660   -5.2310    0.0000 H   0  0  0  0  0  0  0  0  0  0  0  0
    0.5350   -3.5340    0.8900 H   0  0  0  0  0  0  0  0  0  0  0  0
    0.5350   -3.5340   -0.8900 H   0  0  0  0  0  0  0  0  0  0  0  0
   -1.5850   -4.6430    0.8900 H   0  0  0  0  0  0  0  0  0  0  0  0
   -1.5850   -4.6430   -0.8900 H   0  0  0  0  0  0  0  0  0  0  0  0
   -1.7260   -2.2540   -0.8900 H   0  0  0  0  0  0  0  0  0  0  0  0
   -1.7260   -2.2540    0.8900 H   0  0  0  0  0  0  0  0  0  0  0  0
   -3.8450   -3.3620    0.8900 H   0  0  0  0  0  0  0  0  0  0  0  0
   -3.8450   -3.3620   -0.8900 H   0  0  0  0  0  0  0  0  0  0  0  0
   -3.9860   -0.9730   -0.8900 H   0  0  0  0  0  0  0  0  0  0  0  0
   -3.9860   -0.9730    0.8900 H   0  0  0  0  0  0  0  0  0  0  0  0
   -5.3760   -1.6650    0.0000 H   0  0  0  0  0  0  0  0  0  0  0  0
  1  2  1  0  0  0  0
  1  7  1  0  0  0  0
  1  8  1  0  0  0  0
  1  9  1  0  0  0  0
  2  3  1  0  0  0  0
  2 10  1  0  0  0  0
  2 11  1  0  0  0  0
  3  4  1  0  0  0  0
  3 12  1  0  0  0  0
  3 13  1  0  0  0  0
  4  5  1  0  0  0  0
  4 14  1  0  0  0  0
  4 15  1  0  0  0  0
  5  6  1  0  0  0  0
  5 16  1  0  0  0  0
  5 17  1  0  0  0  0
  6 18  1  0  0  0  0
  6 19  1  0  0  0  0
  6 20  1  0  0  0  0
M  END
