1err_4.pdb
  MOE2019           3D

 20 19  0  0  0  0  0  0  0  0999 V2000
   -0.7500    3.9100    0.0000 C   0  0  0  0  0  0  0  0  0  0  0  0
    0.0110    5.2030    0.0000 C   0  0  0  0  0  0  0  0  0  0  0  0
    1.5110    5.1900    0.0000 C   0  0  0  0  0  0  0  0  0  0  0  0
    2.2720    6.4820    0.0000 C   0  0  0  0  0  0  0  0  0  0  0  0
    3.7720    6.4700    0.0000 C   0  0  0  0  0  0  0  0  0  0  0  0
    4.5330    7.7620    0.0000 C   0  0  0  0  0  0  0  0  0  0  0  0
   -0.4400    3.3620    0.8900 H   0  0  0  0  0  0  0  0  0  0  0  0
   -0.4400    3.3620   -0.8900 H   0  0  0  0  0  0  0  0  0  0  0  0
   -1.8300    4.0540    0.0000 H   0  0  0  0  0  0  0  0  0  0  0  0
   -0.2990    5.7510   -0.8900 H   0  0  0  0  0  0  0  0  0  0  0  0
   -0.2990    5.7510    0.8900 H   0  0  0  0  0  0  0  0  0  0  0  0
    1.8210    4.6420   -0.8900 H   0  0  0  0  0  0  0  0  0  0  0  0
    1.8210    4.6420    0.8900 H   0  0  0  0  0  0  0  0  0  0  0  0
    1.9620    7.0300    0.8900 H   0  0  0  0  0  0  0  0  0  0  0  0
    1.9620    7.0300   -0.8900 H   0  0  0  0  0  0  0  0  0  0  0  0
    4.0820    5.9220   -0.8900 H   0  0  0  0  0  0  0  0  0  0  0  0
    4.0820    5.9220    0.8900 H   0  0  0  0  0  0  0  0  0  0  0  0
    4.2230    8.3100    0.8900 H   0  0  0  0  0  0  0  0  0  0  0  0
    4.2230    8.3100   -0.8900 H   0  0  0  0  0  0  0  0  0  0  0  0
    5.6130    7.6180    0.0000 H   0  0  0  0  0  0  0  0  0  0  0  0
  1  2  1  0  0  0  0
  1  7  1  0  0  0  0
  1  8  1  0  0  0  0
  1  9  1  0  0  0  0
  2  3  1  0  0  0  0
  2 10  1  0  0  0  0
  2 11  1  0  0  0  0
  3  4  1  0  0  0  0
  3 12  1  0  0  0  0
  3 13  1  0  0  0  0
  4  5  1  0  0  0  0
  4 14  1  0  0  0  0
  4 15  1  0  0  0  0
  5  6  1  0  0  0  0
  5 16  1  0  0  0  0
  5 17  1  0  0  0  0
  6 18  1  0  0  0  0
  6 19  1  0  0  0  0
  6 20  1  0  0  0  0
M  END
