1err_26.pdb
  MOE2019           3D

 21 21  0  0  0  0  0  0  0  0999 V2000
    1.0640    1.6970    0.0000 N   0  0  0  0  0  0  0  0  0  0  0  0
    2.0630    1.8430    0.0000 H   0  0  0  0  0  0  0  0  0  0  0  0
    0.3680    0.3690    0.0000 N   0  0  0  0  0  0  0  0  0  0  0  0
   -1.1110    0.6200    0.0000 C   0  0  0  0  0  0  0  0  0  0  0  0
   -1.3290    2.1050    0.0000 C   0  0  0  0  0  0  0  0  0  0  0  0
   -2.6570    2.8010    0.0000 C   0  0  0  0  0  0  0  0  0  0  0  0
   -3.9240    1.9980    0.0000 C   0  0  0  0  0  0  0  0  0  0  0  0
   -5.2530    2.6950    0.0000 C   0  0  0  0  0  0  0  0  0  0  0  0
   -6.5200    1.8920    0.0000 C   0  0  0  0  0  0  0  0  0  0  0  0
    0.0160    2.7700    0.0000 C   0  0  0  0  0  0  0  0  0  0  0  0
   -1.8830   -0.1350    0.0000 H   0  0  0  0  0  0  0  0  0  0  0  0
   -2.6830    3.4300    0.8900 H   0  0  0  0  0  0  0  0  0  0  0  0
   -2.6830    3.4300   -0.8900 H   0  0  0  0  0  0  0  0  0  0  0  0
   -3.8980    1.3690    0.8900 H   0  0  0  0  0  0  0  0  0  0  0  0
   -3.8980    1.3690   -0.8900 H   0  0  0  0  0  0  0  0  0  0  0  0
   -5.2790    3.3240   -0.8900 H   0  0  0  0  0  0  0  0  0  0  0  0
   -5.2790    3.3240    0.8900 H   0  0  0  0  0  0  0  0  0  0  0  0
   -6.4940    1.2630    0.8900 H   0  0  0  0  0  0  0  0  0  0  0  0
   -6.4940    1.2630   -0.8900 H   0  0  0  0  0  0  0  0  0  0  0  0
   -7.4160    2.5130    0.0000 H   0  0  0  0  0  0  0  0  0  0  0  0
    0.1980    3.8350    0.0000 H   0  0  0  0  0  0  0  0  0  0  0  0
  1  2  1  0  0  0  0
  1  3  1  0  0  0  0
  1 10  1  0  0  0  0
  3  4  2  0  0  0  0
  4  5  1  0  0  0  0
  4 11  1  0  0  0  0
  5  6  1  0  0  0  0
  5 10  2  0  0  0  0
  6  7  1  0  0  0  0
  6 12  1  0  0  0  0
  6 13  1  0  0  0  0
  7  8  1  0  0  0  0
  7 14  1  0  0  0  0
  7 15  1  0  0  0  0
  8  9  1  0  0  0  0
  8 16  1  0  0  0  0
  8 17  1  0  0  0  0
  9 18  1  0  0  0  0
  9 19  1  0  0  0  0
  9 20  1  0  0  0  0
 10 21  1  0  0  0  0
M  END
