1err_6.pdb
  MOE2019           3D

 11 10  0  0  0  0  0  0  0  0999 V2000
   -0.5660   -3.2460    0.0000 C   0  0  0  0  0  0  0  0  0  0  0  0
   -1.4350   -4.4680    0.0000 C   0  0  0  0  0  0  0  0  0  0  0  0
   -2.9280   -4.3270    0.0000 C   0  0  0  0  0  0  0  0  0  0  0  0
   -0.8280   -2.6740    0.8900 H   0  0  0  0  0  0  0  0  0  0  0  0
   -0.8280   -2.6740   -0.8900 H   0  0  0  0  0  0  0  0  0  0  0  0
    0.4980   -3.4820    0.0000 H   0  0  0  0  0  0  0  0  0  0  0  0
   -1.1730   -5.0400    0.8900 H   0  0  0  0  0  0  0  0  0  0  0  0
   -1.1730   -5.0400   -0.8900 H   0  0  0  0  0  0  0  0  0  0  0  0
   -3.1900   -3.7550   -0.8900 H   0  0  0  0  0  0  0  0  0  0  0  0
   -3.1900   -3.7550    0.8900 H   0  0  0  0  0  0  0  0  0  0  0  0
   -3.4450   -5.2870    0.0000 H   0  0  0  0  0  0  0  0  0  0  0  0
  1  2  1  0  0  0  0
  1  4  1  0  0  0  0
  1  5  1  0  0  0  0
  1  6  1  0  0  0  0
  2  3  1  0  0  0  0
  2  7  1  0  0  0  0
  2  8  1  0  0  0  0
  3  9  1  0  0  0  0
  3 10  1  0  0  0  0
  3 11  1  0  0  0  0
M  END
