1fkh_7.pdb
  MOE2019           3D

 56 56  0  0  0  0  0  0  0  0999 V2000
   -5.6880  -12.0610    0.0000 O   0  0  0  0  0  0  0  0  0  0  0  0
   -6.3970  -11.4140    0.0000 H   0  0  0  0  0  0  0  0  0  0  0  0
   -4.3890  -11.3110    0.0000 C   0  0  0  0  0  0  0  0  0  0  0  0
   -3.0890  -12.0610    0.0000 C   0  0  0  0  0  0  0  0  0  0  0  0
   -3.0890  -13.5610    0.0000 O   0  0  0  0  0  0  0  0  0  0  0  0
   -1.7900  -11.3110    0.0000 N   0  0  0  0  0  0  0  0  0  0  0  0
   -0.4910  -12.0610    0.0000 C   0  0  0  0  0  0  0  0  0  0  0  0
    0.8080  -11.3110    0.0000 C   0  0  0  0  0  0  0  0  0  0  0  0
    2.1070  -12.0610    0.0000 C   0  0  0  0  0  0  0  0  0  0  0  0
    3.4060  -11.3110    0.0000 C   0  0  0  0  0  0  0  0  0  0  0  0
    4.7050  -12.0610    0.0000 C   0  0  0  0  0  0  0  0  0  0  0  0
    6.0040  -11.3110    0.0000 C   0  0  0  0  0  0  0  0  0  0  0  0
    7.3030  -12.0610    0.0000 N   0  0  0  0  0  0  0  0  0  0  0  0
    8.6020  -11.3110    0.0000 C   0  0  0  0  0  0  0  0  0  0  0  0
    8.6020   -9.8110    0.0000 O   0  0  0  0  0  0  0  0  0  0  0  0
    9.9010  -12.0610    0.0000 C   0  0  0  0  0  0  0  0  0  0  0  0
   11.2000  -11.3110    0.0000 O   0  0  0  0  0  0  0  0  0  0  0  0
   12.4990  -12.0610    0.0000 C   0  0  0  0  0  0  0  0  0  0  0  0
   12.4990  -13.5610    0.0000 C   0  0  0  0  0  0  0  0  0  0  0  0
   11.2000  -14.3110    0.0000 O   0  0  0  0  0  0  0  0  0  0  0  0
   11.2000  -15.8110    0.0000 C   0  0  0  0  0  0  0  0  0  0  0  0
   13.7980  -14.3110    0.0000 C   0  0  0  0  0  0  0  0  0  0  0  0
   15.0970  -13.5610    0.0000 C   0  0  0  0  0  0  0  0  0  0  0  0
   16.3960  -14.3110    0.0000 N   0  0  0  0  0  0  0  0  0  0  0  0
   17.6950  -13.5610    0.0000 N   0  0  0  0  0  0  0  0  0  0  0  0
   17.6950  -12.5510    0.0000 H   0  0  0  0  0  0  0  0  0  0  0  0
   15.0970  -12.0610    0.0000 C   0  0  0  0  0  0  0  0  0  0  0  0
   13.7980  -11.3110    0.0000 C   0  0  0  0  0  0  0  0  0  0  0  0
   13.7980   -9.8110    0.0000 O   0  0  0  0  0  0  0  0  0  0  0  0
   15.0970   -9.0610    0.0000 C   0  0  0  0  0  0  0  0  0  0  0  0
   -4.3890  -10.6820   -0.8900 H   0  0  0  0  0  0  0  0  0  0  0  0
   -4.3890  -10.6820    0.8900 H   0  0  0  0  0  0  0  0  0  0  0  0
   -1.7900  -10.3010    0.0000 H   0  0  0  0  0  0  0  0  0  0  0  0
   -0.4910  -12.6900    0.8900 H   0  0  0  0  0  0  0  0  0  0  0  0
   -0.4910  -12.6900   -0.8900 H   0  0  0  0  0  0  0  0  0  0  0  0
    0.8080  -10.6820   -0.8900 H   0  0  0  0  0  0  0  0  0  0  0  0
    0.8080  -10.6820    0.8900 H   0  0  0  0  0  0  0  0  0  0  0  0
    2.1070  -12.6900    0.8900 H   0  0  0  0  0  0  0  0  0  0  0  0
    2.1070  -12.6900   -0.8900 H   0  0  0  0  0  0  0  0  0  0  0  0
    3.4060  -10.6820    0.8900 H   0  0  0  0  0  0  0  0  0  0  0  0
    3.4060  -10.6820   -0.8900 H   0  0  0  0  0  0  0  0  0  0  0  0
    4.7050  -12.6900   -0.8900 H   0  0  0  0  0  0  0  0  0  0  0  0
    4.7050  -12.6900    0.8900 H   0  0  0  0  0  0  0  0  0  0  0  0
    6.0040  -10.6820    0.8900 H   0  0  0  0  0  0  0  0  0  0  0  0
    6.0040  -10.6820   -0.8900 H   0  0  0  0  0  0  0  0  0  0  0  0
    7.3030  -13.0710    0.0000 H   0  0  0  0  0  0  0  0  0  0  0  0
    9.9010  -12.6900   -0.8900 H   0  0  0  0  0  0  0  0  0  0  0  0
    9.9010  -12.6900    0.8900 H   0  0  0  0  0  0  0  0  0  0  0  0
   10.1720  -16.1740    0.0000 H   0  0  0  0  0  0  0  0  0  0  0  0
   11.7140  -16.1740    0.8900 H   0  0  0  0  0  0  0  0  0  0  0  0
   11.7140  -16.1740   -0.8900 H   0  0  0  0  0  0  0  0  0  0  0  0
   13.7980  -15.3910    0.0000 H   0  0  0  0  0  0  0  0  0  0  0  0
   16.0320  -11.5210    0.0000 H   0  0  0  0  0  0  0  0  0  0  0  0
   14.8980   -7.9890    0.0000 H   0  0  0  0  0  0  0  0  0  0  0  0
   15.6690   -9.3240   -0.8900 H   0  0  0  0  0  0  0  0  0  0  0  0
   15.6690   -9.3240    0.8900 H   0  0  0  0  0  0  0  0  0  0  0  0
  1  2  1  0  0  0  0
  1  3  1  0  0  0  0
  3  4  1  0  0  0  0
  3 31  1  0  0  0  0
  3 32  1  0  0  0  0
  4  5  2  0  0  0  0
  4  6  1  0  0  0  0
  6  7  1  0  0  0  0
  6 33  1  0  0  0  0
  7  8  1  0  0  0  0
  7 34  1  0  0  0  0
  7 35  1  0  0  0  0
  8  9  1  0  0  0  0
  8 36  1  0  0  0  0
  8 37  1  0  0  0  0
  9 10  1  0  0  0  0
  9 38  1  0  0  0  0
  9 39  1  0  0  0  0
 10 11  1  0  0  0  0
 10 40  1  0  0  0  0
 10 41  1  0  0  0  0
 11 12  1  0  0  0  0
 11 42  1  0  0  0  0
 11 43  1  0  0  0  0
 12 13  1  0  0  0  0
 12 44  1  0  0  0  0
 12 45  1  0  0  0  0
 13 14  1  0  0  0  0
 13 46  1  0  0  0  0
 14 15  2  0  0  0  0
 14 16  1  0  0  0  0
 16 17  1  0  0  0  0
 16 47  1  0  0  0  0
 16 48  1  0  0  0  0
 17 18  1  0  0  0  0
 18 19  1  0  0  0  0
 18 28  2  0  0  0  0
 19 20  1  0  0  0  0
 19 22  2  0  0  0  0
 20 21  1  0  0  0  0
 21 49  1  0  0  0  0
 21 50  1  0  0  0  0
 21 51  1  0  0  0  0
 22 23  1  0  0  0  0
 22 52  1  0  0  0  0
 23 24  1  0  0  0  0
 23 27  2  0  0  0  0
 24 25  2  0  0  0  0
 25 26  1  0  0  0  0
 27 28  1  0  0  0  0
 27 53  1  0  0  0  0
 28 29  1  0  0  0  0
 29 30  1  0  0  0  0
 30 54  1  0  0  0  0
 30 55  1  0  0  0  0
 30 56  1  0  0  0  0
M  END
