1fkh_2.pdb
  MOE2019           3D

 57 56  0  0  0  0  0  0  0  0999 V2000
   -8.8390  -20.7310    0.0000 N   0  0  0  0  0  0  0  0  0  0  0  0
   -8.8390  -19.2310    0.0000 C   0  0  0  0  0  0  0  0  0  0  0  0
  -10.1380  -18.4810    0.0000 O   0  0  0  0  0  0  0  0  0  0  0  0
   -7.5400  -18.4810    0.0000 C   0  0  0  0  0  0  0  0  0  0  0  0
   -6.2410  -19.2310    0.0000 C   0  0  0  0  0  0  0  0  0  0  0  0
   -4.9420  -18.4810    0.0000 C   0  0  0  0  0  0  0  0  0  0  0  0
   -4.9420  -16.9810    0.0000 O   0  0  0  0  0  0  0  0  0  0  0  0
   -3.6430  -19.2310    0.0000 N   0  0  0  0  0  0  0  0  0  0  0  0
   -2.3440  -18.4810    0.0000 C   0  0  0  0  0  0  0  0  0  0  0  0
   -1.0450  -19.2310    0.0000 C   0  0  0  0  0  0  0  0  0  0  0  0
    0.2540  -18.4810    0.0000 C   0  0  0  0  0  0  0  0  0  0  0  0
    1.5530  -19.2310    0.0000 O   0  0  0  0  0  0  0  0  0  0  0  0
    2.8530  -18.4810    0.0000 C   0  0  0  0  0  0  0  0  0  0  0  0
    4.1520  -19.2310    0.0000 C   0  0  0  0  0  0  0  0  0  0  0  0
    5.4510  -18.4810    0.0000 O   0  0  0  0  0  0  0  0  0  0  0  0
    6.7500  -19.2310    0.0000 C   0  0  0  0  0  0  0  0  0  0  0  0
    8.0490  -18.4810    0.0000 C   0  0  0  0  0  0  0  0  0  0  0  0
    9.3480  -19.2310    0.0000 O   0  0  0  0  0  0  0  0  0  0  0  0
   10.6470  -18.4810    0.0000 C   0  0  0  0  0  0  0  0  0  0  0  0
   11.9460  -19.2310    0.0000 C   0  0  0  0  0  0  0  0  0  0  0  0
   13.2450  -18.4810    0.0000 C   0  0  0  0  0  0  0  0  0  0  0  0
   14.5440  -19.2310    0.0000 N   0  0  0  0  0  0  0  0  0  0  0  0
   15.8430  -18.4810    0.0000 C   0  0  0  0  0  0  0  0  0  0  0  0
   17.1420  -19.2310    0.0000 O   0  0  0  0  0  0  0  0  0  0  0  0
   15.8430  -16.9810    0.0000 C   0  0  0  0  0  0  0  0  0  0  0  0
   17.1420  -16.2310    0.0000 O   0  0  0  0  0  0  0  0  0  0  0  0
   16.9360  -15.2930    0.0000 H   0  0  0  0  0  0  0  0  0  0  0  0
   -7.9640  -21.2360    0.0000 H   0  0  0  0  0  0  0  0  0  0  0  0
   -9.7140  -21.2360    0.0000 H   0  0  0  0  0  0  0  0  0  0  0  0
   -7.5400  -17.8520   -0.8900 H   0  0  0  0  0  0  0  0  0  0  0  0
   -7.5400  -17.8520    0.8900 H   0  0  0  0  0  0  0  0  0  0  0  0
   -6.2410  -19.8600   -0.8900 H   0  0  0  0  0  0  0  0  0  0  0  0
   -6.2410  -19.8600    0.8900 H   0  0  0  0  0  0  0  0  0  0  0  0
   -3.6430  -20.2410    0.0000 H   0  0  0  0  0  0  0  0  0  0  0  0
   -2.3440  -17.8520   -0.8900 H   0  0  0  0  0  0  0  0  0  0  0  0
   -2.3440  -17.8520    0.8900 H   0  0  0  0  0  0  0  0  0  0  0  0
   -1.0450  -19.8600   -0.8900 H   0  0  0  0  0  0  0  0  0  0  0  0
   -1.0450  -19.8600    0.8900 H   0  0  0  0  0  0  0  0  0  0  0  0
    0.2540  -17.8520    0.8900 H   0  0  0  0  0  0  0  0  0  0  0  0
    0.2540  -17.8520   -0.8900 H   0  0  0  0  0  0  0  0  0  0  0  0
    2.8530  -17.8520   -0.8900 H   0  0  0  0  0  0  0  0  0  0  0  0
    2.8530  -17.8520    0.8900 H   0  0  0  0  0  0  0  0  0  0  0  0
    4.1520  -19.8600   -0.8900 H   0  0  0  0  0  0  0  0  0  0  0  0
    4.1520  -19.8600    0.8900 H   0  0  0  0  0  0  0  0  0  0  0  0
    6.7500  -19.8600    0.8900 H   0  0  0  0  0  0  0  0  0  0  0  0
    6.7500  -19.8600   -0.8900 H   0  0  0  0  0  0  0  0  0  0  0  0
    8.0490  -17.8520    0.8900 H   0  0  0  0  0  0  0  0  0  0  0  0
    8.0490  -17.8520   -0.8900 H   0  0  0  0  0  0  0  0  0  0  0  0
   10.6470  -17.8520   -0.8900 H   0  0  0  0  0  0  0  0  0  0  0  0
   10.6470  -17.8520    0.8900 H   0  0  0  0  0  0  0  0  0  0  0  0
   11.9460  -19.8600    0.8900 H   0  0  0  0  0  0  0  0  0  0  0  0
   11.9460  -19.8600   -0.8900 H   0  0  0  0  0  0  0  0  0  0  0  0
   13.2450  -17.8520    0.8900 H   0  0  0  0  0  0  0  0  0  0  0  0
   13.2450  -17.8520   -0.8900 H   0  0  0  0  0  0  0  0  0  0  0  0
   14.5440  -20.2410    0.0000 H   0  0  0  0  0  0  0  0  0  0  0  0
   15.2980  -16.6660    0.8900 H   0  0  0  0  0  0  0  0  0  0  0  0
   15.2980  -16.6660   -0.8900 H   0  0  0  0  0  0  0  0  0  0  0  0
  1  2  1  0  0  0  0
  1 28  1  0  0  0  0
  1 29  1  0  0  0  0
  2  3  2  0  0  0  0
  2  4  1  0  0  0  0
  4  5  1  0  0  0  0
  4 30  1  0  0  0  0
  4 31  1  0  0  0  0
  5  6  1  0  0  0  0
  5 32  1  0  0  0  0
  5 33  1  0  0  0  0
  6  7  2  0  0  0  0
  6  8  1  0  0  0  0
  8  9  1  0  0  0  0
  8 34  1  0  0  0  0
  9 10  1  0  0  0  0
  9 35  1  0  0  0  0
  9 36  1  0  0  0  0
 10 11  1  0  0  0  0
 10 37  1  0  0  0  0
 10 38  1  0  0  0  0
 11 12  1  0  0  0  0
 11 39  1  0  0  0  0
 11 40  1  0  0  0  0
 12 13  1  0  0  0  0
 13 14  1  0  0  0  0
 13 41  1  0  0  0  0
 13 42  1  0  0  0  0
 14 15  1  0  0  0  0
 14 43  1  0  0  0  0
 14 44  1  0  0  0  0
 15 16  1  0  0  0  0
 16 17  1  0  0  0  0
 16 45  1  0  0  0  0
 16 46  1  0  0  0  0
 17 18  1  0  0  0  0
 17 47  1  0  0  0  0
 17 48  1  0  0  0  0
 18 19  1  0  0  0  0
 19 20  1  0  0  0  0
 19 49  1  0  0  0  0
 19 50  1  0  0  0  0
 20 21  1  0  0  0  0
 20 51  1  0  0  0  0
 20 52  1  0  0  0  0
 21 22  1  0  0  0  0
 21 53  1  0  0  0  0
 21 54  1  0  0  0  0
 22 23  1  0  0  0  0
 22 55  1  0  0  0  0
 23 24  2  0  0  0  0
 23 25  1  0  0  0  0
 25 26  1  0  0  0  0
 25 56  1  0  0  0  0
 25 57  1  0  0  0  0
 26 27  1  0  0  0  0
M  END
