1hwk_2.pdb
  MOE2019           3D

 31 31  0  0  0  0  0  0  0  0999 V2000
    7.7240    6.7840    0.0000 O   0  0  0  0  0  0  0  0  0  0  0  0
    6.8030    6.5130    0.0000 H   0  0  0  0  0  0  0  0  0  0  0  0
    8.5630    5.5400    0.0000 C   0  0  0  0  0  0  0  0  0  0  0  0
   10.0590    5.6440    0.0000 C   0  0  0  0  0  0  0  0  0  0  0  0
   10.8970    4.4000    0.0000 C   0  0  0  0  0  0  0  0  0  0  0  0
   12.3940    4.5040    0.0000 C   0  0  0  0  0  0  0  0  0  0  0  0
   13.1890    5.7760    0.0000 N   0  0  0  0  0  0  0  0  0  0  0  0
   14.6440    5.4120    0.0000 N   0  0  0  0  0  0  0  0  0  0  0  0
   14.7480    3.9160    0.0000 N   0  0  0  0  0  0  0  0  0  0  0  0
   16.0200    3.1200    0.0000 C   0  0  0  0  0  0  0  0  0  0  0  0
   17.3450    3.8240    0.0000 C   0  0  0  0  0  0  0  0  0  0  0  0
   18.6170    3.0290    0.0000 O   0  0  0  0  0  0  0  0  0  0  0  0
   19.9410    3.7320    0.0000 C   0  0  0  0  0  0  0  0  0  0  0  0
   21.2130    2.9370    0.0000 C   0  0  0  0  0  0  0  0  0  0  0  0
   13.3570    3.3540    0.0000 C   0  0  0  0  0  0  0  0  0  0  0  0
    8.2870    4.9740    0.8900 H   0  0  0  0  0  0  0  0  0  0  0  0
    8.2870    4.9740   -0.8900 H   0  0  0  0  0  0  0  0  0  0  0  0
   10.3350    6.2090   -0.8900 H   0  0  0  0  0  0  0  0  0  0  0  0
   10.3350    6.2090    0.8900 H   0  0  0  0  0  0  0  0  0  0  0  0
   10.6210    3.8350   -0.8900 H   0  0  0  0  0  0  0  0  0  0  0  0
   10.6210    3.8350    0.8900 H   0  0  0  0  0  0  0  0  0  0  0  0
   15.9980    2.4910    0.8900 H   0  0  0  0  0  0  0  0  0  0  0  0
   15.9980    2.4910   -0.8900 H   0  0  0  0  0  0  0  0  0  0  0  0
   17.3670    4.4530    0.8900 H   0  0  0  0  0  0  0  0  0  0  0  0
   17.3670    4.4530   -0.8900 H   0  0  0  0  0  0  0  0  0  0  0  0
   19.9630    4.3610   -0.8900 H   0  0  0  0  0  0  0  0  0  0  0  0
   19.9630    4.3610    0.8900 H   0  0  0  0  0  0  0  0  0  0  0  0
   21.1910    2.3080   -0.8900 H   0  0  0  0  0  0  0  0  0  0  0  0
   21.1910    2.3080    0.8900 H   0  0  0  0  0  0  0  0  0  0  0  0
   22.1050    3.5640    0.0000 H   0  0  0  0  0  0  0  0  0  0  0  0
   13.0950    2.3060    0.0000 H   0  0  0  0  0  0  0  0  0  0  0  0
  1  2  1  0  0  0  0
  1  3  1  0  0  0  0
  3  4  1  0  0  0  0
  3 16  1  0  0  0  0
  3 17  1  0  0  0  0
  4  5  1  0  0  0  0
  4 18  1  0  0  0  0
  4 19  1  0  0  0  0
  5  6  1  0  0  0  0
  5 20  1  0  0  0  0
  5 21  1  0  0  0  0
  6  7  1  0  0  0  0
  6 15  2  0  0  0  0
  7  8  2  0  0  0  0
  8  9  1  0  0  0  0
  9 10  1  0  0  0  0
  9 15  1  0  0  0  0
 10 11  1  0  0  0  0
 10 22  1  0  0  0  0
 10 23  1  0  0  0  0
 11 12  1  0  0  0  0
 11 24  1  0  0  0  0
 11 25  1  0  0  0  0
 12 13  1  0  0  0  0
 13 14  1  0  0  0  0
 13 26  1  0  0  0  0
 13 27  1  0  0  0  0
 14 28  1  0  0  0  0
 14 29  1  0  0  0  0
 14 30  1  0  0  0  0
 15 31  1  0  0  0  0
M  END
