1hwk_34.pdb
  MOE2019           3D

 34 34  0  0  0  0  0  0  0  0999 V2000
   -3.1260    2.5980    0.0000 O   0  0  0  0  0  0  0  0  0  0  0  0
   -4.0380    2.2980    0.0000 H   0  0  0  0  0  0  0  0  0  0  0  0
   -2.2480    1.3810    0.0000 C   0  0  0  0  0  0  0  0  0  0  0  0
   -0.7560    1.5320    0.0000 C   0  0  0  0  0  0  0  0  0  0  0  0
    0.1210    0.3160    0.0000 C   0  0  0  0  0  0  0  0  0  0  0  0
    1.6130    0.4670    0.0000 C   0  0  0  0  0  0  0  0  0  0  0  0
    2.3680    1.7630    0.0000 N   0  0  0  0  0  0  0  0  0  0  0  0
    3.8340    1.4460    0.0000 N   0  0  0  0  0  0  0  0  0  0  0  0
    3.9860   -0.0460    0.0000 N   0  0  0  0  0  0  0  0  0  0  0  0
    5.2820   -0.8010    0.0000 C   0  0  0  0  0  0  0  0  0  0  0  0
    6.5840   -0.0560    0.0000 C   0  0  0  0  0  0  0  0  0  0  0  0
    7.8800   -0.8100    0.0000 O   0  0  0  0  0  0  0  0  0  0  0  0
    9.1820   -0.0650    0.0000 C   0  0  0  0  0  0  0  0  0  0  0  0
   10.4780   -0.8200    0.0000 C   0  0  0  0  0  0  0  0  0  0  0  0
   10.4760   -1.4490   -0.8900 H   0  0  0  0  0  0  0  0  0  0  0  0
   10.4760   -1.4490    0.8900 H   0  0  0  0  0  0  0  0  0  0  0  0
    2.6130   -0.6510    0.0000 C   0  0  0  0  0  0  0  0  0  0  0  0
   -2.5060    0.8070    0.8900 H   0  0  0  0  0  0  0  0  0  0  0  0
   -2.5060    0.8070   -0.8900 H   0  0  0  0  0  0  0  0  0  0  0  0
   -0.4980    2.1060   -0.8900 H   0  0  0  0  0  0  0  0  0  0  0  0
   -0.4980    2.1060    0.8900 H   0  0  0  0  0  0  0  0  0  0  0  0
   -0.1370   -0.2580   -0.8900 H   0  0  0  0  0  0  0  0  0  0  0  0
   -0.1370   -0.2580    0.8900 H   0  0  0  0  0  0  0  0  0  0  0  0
    5.2800   -1.4300    0.8900 H   0  0  0  0  0  0  0  0  0  0  0  0
    5.2800   -1.4300   -0.8900 H   0  0  0  0  0  0  0  0  0  0  0  0
    6.5860    0.5730    0.8900 H   0  0  0  0  0  0  0  0  0  0  0  0
    6.5860    0.5730   -0.8900 H   0  0  0  0  0  0  0  0  0  0  0  0
    9.1840    0.5640   -0.8900 H   0  0  0  0  0  0  0  0  0  0  0  0
    9.1840    0.5640    0.8900 H   0  0  0  0  0  0  0  0  0  0  0  0
    2.3850   -1.7070    0.0000 H   0  0  0  0  0  0  0  0  0  0  0  0
   11.7800   -0.0750    0.0000 C   0  0  0  0  0  0  0  0  0  0  0  0
   11.7820    0.5540   -0.8900 H   0  0  0  0  0  0  0  0  0  0  0  0
   11.7820    0.5540    0.8900 H   0  0  0  0  0  0  0  0  0  0  0  0
   12.6470   -0.7360    0.0000 H   0  0  0  0  0  0  0  0  0  0  0  0
  1  2  1  0  0  0  0
  1  3  1  0  0  0  0
  3  4  1  0  0  0  0
  3 18  1  0  0  0  0
  3 19  1  0  0  0  0
  4  5  1  0  0  0  0
  4 20  1  0  0  0  0
  4 21  1  0  0  0  0
  5  6  1  0  0  0  0
  5 22  1  0  0  0  0
  5 23  1  0  0  0  0
  6  7  1  0  0  0  0
  6 17  2  0  0  0  0
  7  8  2  0  0  0  0
  8  9  1  0  0  0  0
  9 10  1  0  0  0  0
  9 17  1  0  0  0  0
 10 11  1  0  0  0  0
 10 24  1  0  0  0  0
 10 25  1  0  0  0  0
 11 12  1  0  0  0  0
 11 26  1  0  0  0  0
 11 27  1  0  0  0  0
 12 13  1  0  0  0  0
 13 14  1  0  0  0  0
 13 28  1  0  0  0  0
 13 29  1  0  0  0  0
 14 15  1  0  0  0  0
 14 16  1  0  0  0  0
 14 31  1  0  0  0  0
 17 30  1  0  0  0  0
 31 32  1  0  0  0  0
 31 33  1  0  0  0  0
 31 34  1  0  0  0  0
M  END
