1hwk_6.pdb
  MOE2019           3D

 41 41  0  0  0  0  0  0  0  0999 V2000
    0.1780    8.8890    0.0000 O   0  0  0  0  0  0  0  0  0  0  0  0
   -0.0470    9.8220    0.0000 H   0  0  0  0  0  0  0  0  0  0  0  0
    1.6750    8.7830    0.0000 C   0  0  0  0  0  0  0  0  0  0  0  0
    2.3310    7.4350    0.0000 C   0  0  0  0  0  0  0  0  0  0  0  0
    3.8280    7.3290    0.0000 C   0  0  0  0  0  0  0  0  0  0  0  0
    4.4840    5.9800    0.0000 C   0  0  0  0  0  0  0  0  0  0  0  0
    5.9810    5.8750    0.0000 C   0  0  0  0  0  0  0  0  0  0  0  0
    6.7750    4.6020    0.0000 N   0  0  0  0  0  0  0  0  0  0  0  0
    8.2300    4.9640    0.0000 N   0  0  0  0  0  0  0  0  0  0  0  0
    8.3360    6.4600    0.0000 N   0  0  0  0  0  0  0  0  0  0  0  0
    9.6080    7.2540    0.0000 C   0  0  0  0  0  0  0  0  0  0  0  0
   10.9320    6.5490    0.0000 C   0  0  0  0  0  0  0  0  0  0  0  0
   12.2050    7.3430    0.0000 O   0  0  0  0  0  0  0  0  0  0  0  0
   13.5290    6.6380    0.0000 C   0  0  0  0  0  0  0  0  0  0  0  0
   14.8020    7.4320    0.0000 C   0  0  0  0  0  0  0  0  0  0  0  0
   16.1260    6.7270    0.0000 O   0  0  0  0  0  0  0  0  0  0  0  0
   17.3980    7.5210    0.0000 C   0  0  0  0  0  0  0  0  0  0  0  0
   18.7220    6.8160    0.0000 C   0  0  0  0  0  0  0  0  0  0  0  0
    6.9450    7.0230    0.0000 C   0  0  0  0  0  0  0  0  0  0  0  0
    2.0270    9.3040   -0.8900 H   0  0  0  0  0  0  0  0  0  0  0  0
    2.0270    9.3040    0.8900 H   0  0  0  0  0  0  0  0  0  0  0  0
    1.9790    6.9140    0.8900 H   0  0  0  0  0  0  0  0  0  0  0  0
    1.9790    6.9140   -0.8900 H   0  0  0  0  0  0  0  0  0  0  0  0
    4.1800    7.8500   -0.8900 H   0  0  0  0  0  0  0  0  0  0  0  0
    4.1800    7.8500    0.8900 H   0  0  0  0  0  0  0  0  0  0  0  0
    4.1320    5.4590   -0.8900 H   0  0  0  0  0  0  0  0  0  0  0  0
    4.1320    5.4590    0.8900 H   0  0  0  0  0  0  0  0  0  0  0  0
    9.5860    7.8830   -0.8900 H   0  0  0  0  0  0  0  0  0  0  0  0
    9.5860    7.8830    0.8900 H   0  0  0  0  0  0  0  0  0  0  0  0
   10.9540    5.9200   -0.8900 H   0  0  0  0  0  0  0  0  0  0  0  0
   10.9540    5.9200    0.8900 H   0  0  0  0  0  0  0  0  0  0  0  0
   13.5510    6.0090    0.8900 H   0  0  0  0  0  0  0  0  0  0  0  0
   13.5510    6.0090   -0.8900 H   0  0  0  0  0  0  0  0  0  0  0  0
   14.7800    8.0610    0.8900 H   0  0  0  0  0  0  0  0  0  0  0  0
   14.7800    8.0610   -0.8900 H   0  0  0  0  0  0  0  0  0  0  0  0
   17.3760    8.1500   -0.8900 H   0  0  0  0  0  0  0  0  0  0  0  0
   17.3760    8.1500    0.8900 H   0  0  0  0  0  0  0  0  0  0  0  0
   18.7440    6.1870   -0.8900 H   0  0  0  0  0  0  0  0  0  0  0  0
   18.7440    6.1870    0.8900 H   0  0  0  0  0  0  0  0  0  0  0  0
   19.5680    7.5030    0.0000 H   0  0  0  0  0  0  0  0  0  0  0  0
    6.6840    8.0710    0.0000 H   0  0  0  0  0  0  0  0  0  0  0  0
  1  2  1  0  0  0  0
  1  3  1  0  0  0  0
  3  4  1  0  0  0  0
  3 20  1  0  0  0  0
  3 21  1  0  0  0  0
  4  5  1  0  0  0  0
  4 22  1  0  0  0  0
  4 23  1  0  0  0  0
  5  6  1  0  0  0  0
  5 24  1  0  0  0  0
  5 25  1  0  0  0  0
  6  7  1  0  0  0  0
  6 26  1  0  0  0  0
  6 27  1  0  0  0  0
  7  8  1  0  0  0  0
  7 19  2  0  0  0  0
  8  9  2  0  0  0  0
  9 10  1  0  0  0  0
 10 11  1  0  0  0  0
 10 19  1  0  0  0  0
 11 12  1  0  0  0  0
 11 28  1  0  0  0  0
 11 29  1  0  0  0  0
 12 13  1  0  0  0  0
 12 30  1  0  0  0  0
 12 31  1  0  0  0  0
 13 14  1  0  0  0  0
 14 15  1  0  0  0  0
 14 32  1  0  0  0  0
 14 33  1  0  0  0  0
 15 16  1  0  0  0  0
 15 34  1  0  0  0  0
 15 35  1  0  0  0  0
 16 17  1  0  0  0  0
 17 18  1  0  0  0  0
 17 36  1  0  0  0  0
 17 37  1  0  0  0  0
 18 38  1  0  0  0  0
 18 39  1  0  0  0  0
 18 40  1  0  0  0  0
 19 41  1  0  0  0  0
M  END
