1hwk_4.pdb
  MOE2019           3D

 37 37  0  0  0  0  0  0  0  0999 V2000
   -1.6050    6.7300    0.0000 O   0  0  0  0  0  0  0  0  0  0  0  0
   -2.2480    7.4430    0.0000 H   0  0  0  0  0  0  0  0  0  0  0  0
   -0.2390    7.3500    0.0000 C   0  0  0  0  0  0  0  0  0  0  0  0
    0.9810    6.4770    0.0000 C   0  0  0  0  0  0  0  0  0  0  0  0
    2.3470    7.0970    0.0000 C   0  0  0  0  0  0  0  0  0  0  0  0
    3.5670    6.2240    0.0000 C   0  0  0  0  0  0  0  0  0  0  0  0
    4.9330    6.8440    0.0000 C   0  0  0  0  0  0  0  0  0  0  0  0
    6.1520    5.9710    0.0000 C   0  0  0  0  0  0  0  0  0  0  0  0
    6.1630    4.4710    0.0000 N   0  0  0  0  0  0  0  0  0  0  0  0
    7.5930    4.0170    0.0000 N   0  0  0  0  0  0  0  0  0  0  0  0
    8.4660    5.2370    0.0000 N   0  0  0  0  0  0  0  0  0  0  0  0
    9.9660    5.2480    0.0000 C   0  0  0  0  0  0  0  0  0  0  0  0
   10.7070    6.5520    0.0000 C   0  0  0  0  0  0  0  0  0  0  0  0
   12.2070    6.5630    0.0000 O   0  0  0  0  0  0  0  0  0  0  0  0
   12.9470    7.8670    0.0000 C   0  0  0  0  0  0  0  0  0  0  0  0
   14.4470    7.8780    0.0000 C   0  0  0  0  0  0  0  0  0  0  0  0
    7.5760    6.4440    0.0000 C   0  0  0  0  0  0  0  0  0  0  0  0
   -0.1780    7.9760   -0.8900 H   0  0  0  0  0  0  0  0  0  0  0  0
   -0.1780    7.9760    0.8900 H   0  0  0  0  0  0  0  0  0  0  0  0
    0.9200    5.8510    0.8900 H   0  0  0  0  0  0  0  0  0  0  0  0
    0.9200    5.8510   -0.8900 H   0  0  0  0  0  0  0  0  0  0  0  0
    2.4080    7.7230   -0.8900 H   0  0  0  0  0  0  0  0  0  0  0  0
    2.4080    7.7230    0.8900 H   0  0  0  0  0  0  0  0  0  0  0  0
    3.5060    5.5980   -0.8900 H   0  0  0  0  0  0  0  0  0  0  0  0
    3.5060    5.5980    0.8900 H   0  0  0  0  0  0  0  0  0  0  0  0
    4.9940    7.4700    0.8900 H   0  0  0  0  0  0  0  0  0  0  0  0
    4.9940    7.4700   -0.8900 H   0  0  0  0  0  0  0  0  0  0  0  0
   10.2850    4.7050    0.8900 H   0  0  0  0  0  0  0  0  0  0  0  0
   10.2850    4.7050   -0.8900 H   0  0  0  0  0  0  0  0  0  0  0  0
   10.3880    7.0950    0.8900 H   0  0  0  0  0  0  0  0  0  0  0  0
   10.3880    7.0950   -0.8900 H   0  0  0  0  0  0  0  0  0  0  0  0
   12.6280    8.4100   -0.8900 H   0  0  0  0  0  0  0  0  0  0  0  0
   12.6280    8.4100    0.8900 H   0  0  0  0  0  0  0  0  0  0  0  0
   14.7660    7.3350   -0.8900 H   0  0  0  0  0  0  0  0  0  0  0  0
   14.7660    7.3350    0.8900 H   0  0  0  0  0  0  0  0  0  0  0  0
   14.8630    8.8850    0.0000 H   0  0  0  0  0  0  0  0  0  0  0  0
    7.9030    7.4730    0.0000 H   0  0  0  0  0  0  0  0  0  0  0  0
  1  2  1  0  0  0  0
  1  3  1  0  0  0  0
  3  4  1  0  0  0  0
  3 18  1  0  0  0  0
  3 19  1  0  0  0  0
  4  5  1  0  0  0  0
  4 20  1  0  0  0  0
  4 21  1  0  0  0  0
  5  6  1  0  0  0  0
  5 22  1  0  0  0  0
  5 23  1  0  0  0  0
  6  7  1  0  0  0  0
  6 24  1  0  0  0  0
  6 25  1  0  0  0  0
  7  8  1  0  0  0  0
  7 26  1  0  0  0  0
  7 27  1  0  0  0  0
  8  9  1  0  0  0  0
  8 17  2  0  0  0  0
  9 10  2  0  0  0  0
 10 11  1  0  0  0  0
 11 12  1  0  0  0  0
 11 17  1  0  0  0  0
 12 13  1  0  0  0  0
 12 28  1  0  0  0  0
 12 29  1  0  0  0  0
 13 14  1  0  0  0  0
 13 30  1  0  0  0  0
 13 31  1  0  0  0  0
 14 15  1  0  0  0  0
 15 16  1  0  0  0  0
 15 32  1  0  0  0  0
 15 33  1  0  0  0  0
 16 34  1  0  0  0  0
 16 35  1  0  0  0  0
 16 36  1  0  0  0  0
 17 37  1  0  0  0  0
M  END
