1hwk_36.pdb
  MOE2019           3D

 40 40  0  0  0  0  0  0  0  0999 V2000
   -0.8200   -7.7300    0.0000 O   0  0  0  0  0  0  0  0  0  0  0  0
   -1.0160   -6.7900    0.0000 H   0  0  0  0  0  0  0  0  0  0  0  0
    0.6720   -7.8820    0.0000 C   0  0  0  0  0  0  0  0  0  0  0  0
    1.2870   -9.2500    0.0000 C   0  0  0  0  0  0  0  0  0  0  0  0
    2.7790   -9.4010    0.0000 C   0  0  0  0  0  0  0  0  0  0  0  0
    3.3940  -10.7700    0.0000 C   0  0  0  0  0  0  0  0  0  0  0  0
    2.6490  -12.0710    0.0000 N   0  0  0  0  0  0  0  0  0  0  0  0
    3.6560  -13.1820    0.0000 N   0  0  0  0  0  0  0  0  0  0  0  0
    5.0240  -12.5680    0.0000 N   0  0  0  0  0  0  0  0  0  0  0  0
    6.3260  -13.3130    0.0000 C   0  0  0  0  0  0  0  0  0  0  0  0
    7.6230  -12.5590    0.0000 C   0  0  0  0  0  0  0  0  0  0  0  0
    8.9240  -13.3040    0.0000 C   0  0  0  0  0  0  0  0  0  0  0  0
   10.2210  -12.5490    0.0000 C   0  0  0  0  0  0  0  0  0  0  0  0
   11.5220  -13.2950    0.0000 O   0  0  0  0  0  0  0  0  0  0  0  0
   12.8190  -12.5400    0.0000 C   0  0  0  0  0  0  0  0  0  0  0  0
   14.1200  -13.2860    0.0000 C   0  0  0  0  0  0  0  0  0  0  0  0
   14.1220  -13.9150   -0.8900 H   0  0  0  0  0  0  0  0  0  0  0  0
   14.1220  -13.9150    0.8900 H   0  0  0  0  0  0  0  0  0  0  0  0
    4.8620  -11.0760    0.0000 C   0  0  0  0  0  0  0  0  0  0  0  0
    1.0400   -7.3720   -0.8900 H   0  0  0  0  0  0  0  0  0  0  0  0
    1.0400   -7.3720    0.8900 H   0  0  0  0  0  0  0  0  0  0  0  0
    0.9190   -9.7610    0.8900 H   0  0  0  0  0  0  0  0  0  0  0  0
    0.9190   -9.7610   -0.8900 H   0  0  0  0  0  0  0  0  0  0  0  0
    3.1470   -8.8910    0.8900 H   0  0  0  0  0  0  0  0  0  0  0  0
    3.1470   -8.8910   -0.8900 H   0  0  0  0  0  0  0  0  0  0  0  0
    6.3280  -13.9420    0.8900 H   0  0  0  0  0  0  0  0  0  0  0  0
    6.3280  -13.9420   -0.8900 H   0  0  0  0  0  0  0  0  0  0  0  0
    7.6210  -11.9300   -0.8900 H   0  0  0  0  0  0  0  0  0  0  0  0
    7.6210  -11.9300    0.8900 H   0  0  0  0  0  0  0  0  0  0  0  0
    8.9260  -13.9330   -0.8900 H   0  0  0  0  0  0  0  0  0  0  0  0
    8.9260  -13.9330    0.8900 H   0  0  0  0  0  0  0  0  0  0  0  0
   10.2190  -11.9200    0.8900 H   0  0  0  0  0  0  0  0  0  0  0  0
   10.2190  -11.9200   -0.8900 H   0  0  0  0  0  0  0  0  0  0  0  0
   12.8170  -11.9110   -0.8900 H   0  0  0  0  0  0  0  0  0  0  0  0
   12.8170  -11.9110    0.8900 H   0  0  0  0  0  0  0  0  0  0  0  0
    5.6620  -10.3500    0.0000 H   0  0  0  0  0  0  0  0  0  0  0  0
   15.4170  -12.5310    0.0000 C   0  0  0  0  0  0  0  0  0  0  0  0
   15.4150  -11.9020   -0.8900 H   0  0  0  0  0  0  0  0  0  0  0  0
   15.4150  -11.9020    0.8900 H   0  0  0  0  0  0  0  0  0  0  0  0
   16.2890  -13.1850    0.0000 H   0  0  0  0  0  0  0  0  0  0  0  0
  1  2  1  0  0  0  0
  1  3  1  0  0  0  0
  3  4  1  0  0  0  0
  3 20  1  0  0  0  0
  3 21  1  0  0  0  0
  4  5  1  0  0  0  0
  4 22  1  0  0  0  0
  4 23  1  0  0  0  0
  5  6  1  0  0  0  0
  5 24  1  0  0  0  0
  5 25  1  0  0  0  0
  6  7  1  0  0  0  0
  6 19  2  0  0  0  0
  7  8  2  0  0  0  0
  8  9  1  0  0  0  0
  9 10  1  0  0  0  0
  9 19  1  0  0  0  0
 10 11  1  0  0  0  0
 10 26  1  0  0  0  0
 10 27  1  0  0  0  0
 11 12  1  0  0  0  0
 11 28  1  0  0  0  0
 11 29  1  0  0  0  0
 12 13  1  0  0  0  0
 12 30  1  0  0  0  0
 12 31  1  0  0  0  0
 13 14  1  0  0  0  0
 13 32  1  0  0  0  0
 13 33  1  0  0  0  0
 14 15  1  0  0  0  0
 15 16  1  0  0  0  0
 15 34  1  0  0  0  0
 15 35  1  0  0  0  0
 16 17  1  0  0  0  0
 16 18  1  0  0  0  0
 16 37  1  0  0  0  0
 19 36  1  0  0  0  0
 37 38  1  0  0  0  0
 37 39  1  0  0  0  0
 37 40  1  0  0  0  0
M  END
