1hwk_39.pdb
  MOE2019           3D

 49 49  0  0  0  0  0  0  0  0999 V2000
   -6.9060   -9.0910    0.0000 O   0  0  0  0  0  0  0  0  0  0  0  0
   -7.5460   -9.8070    0.0000 H   0  0  0  0  0  0  0  0  0  0  0  0
   -5.5380   -9.7050    0.0000 C   0  0  0  0  0  0  0  0  0  0  0  0
   -4.3220   -8.8280    0.0000 C   0  0  0  0  0  0  0  0  0  0  0  0
   -2.9530   -9.4420    0.0000 C   0  0  0  0  0  0  0  0  0  0  0  0
   -1.7370   -8.5640    0.0000 C   0  0  0  0  0  0  0  0  0  0  0  0
   -1.7320   -7.0640    0.0000 N   0  0  0  0  0  0  0  0  0  0  0  0
   -0.3040   -6.6060    0.0000 N   0  0  0  0  0  0  0  0  0  0  0  0
    0.5740   -7.8220    0.0000 N   0  0  0  0  0  0  0  0  0  0  0  0
    2.0740   -7.8270    0.0000 C   0  0  0  0  0  0  0  0  0  0  0  0
    2.8280   -6.5300    0.0000 C   0  0  0  0  0  0  0  0  0  0  0  0
    4.3280   -6.5350    0.0000 C   0  0  0  0  0  0  0  0  0  0  0  0
    5.0820   -5.2390    0.0000 C   0  0  0  0  0  0  0  0  0  0  0  0
    6.5820   -5.2430    0.0000 C   0  0  0  0  0  0  0  0  0  0  0  0
    7.3360   -3.9470    0.0000 C   0  0  0  0  0  0  0  0  0  0  0  0
    8.8360   -3.9520    0.0000 C   0  0  0  0  0  0  0  0  0  0  0  0
    9.5900   -2.6550    0.0000 O   0  0  0  0  0  0  0  0  0  0  0  0
   11.0900   -2.6600    0.0000 C   0  0  0  0  0  0  0  0  0  0  0  0
   11.8450   -1.3630    0.0000 C   0  0  0  0  0  0  0  0  0  0  0  0
   13.3450   -1.3680    0.0000 C   0  0  0  0  0  0  0  0  0  0  0  0
   -0.3120   -9.0330    0.0000 C   0  0  0  0  0  0  0  0  0  0  0  0
   -5.4740  -10.3310    0.8900 H   0  0  0  0  0  0  0  0  0  0  0  0
   -5.4740  -10.3310   -0.8900 H   0  0  0  0  0  0  0  0  0  0  0  0
   -4.3860   -8.2020   -0.8900 H   0  0  0  0  0  0  0  0  0  0  0  0
   -4.3860   -8.2020    0.8900 H   0  0  0  0  0  0  0  0  0  0  0  0
   -2.8890  -10.0680   -0.8900 H   0  0  0  0  0  0  0  0  0  0  0  0
   -2.8890  -10.0680    0.8900 H   0  0  0  0  0  0  0  0  0  0  0  0
    2.3870   -8.3730    0.8900 H   0  0  0  0  0  0  0  0  0  0  0  0
    2.3870   -8.3730   -0.8900 H   0  0  0  0  0  0  0  0  0  0  0  0
    2.5150   -5.9840   -0.8900 H   0  0  0  0  0  0  0  0  0  0  0  0
    2.5150   -5.9840    0.8900 H   0  0  0  0  0  0  0  0  0  0  0  0
    4.6410   -7.0810    0.8900 H   0  0  0  0  0  0  0  0  0  0  0  0
    4.6410   -7.0810   -0.8900 H   0  0  0  0  0  0  0  0  0  0  0  0
    4.7690   -4.6930    0.8900 H   0  0  0  0  0  0  0  0  0  0  0  0
    4.7690   -4.6930   -0.8900 H   0  0  0  0  0  0  0  0  0  0  0  0
    6.8950   -5.7890   -0.8900 H   0  0  0  0  0  0  0  0  0  0  0  0
    6.8950   -5.7890    0.8900 H   0  0  0  0  0  0  0  0  0  0  0  0
    7.0230   -3.4010    0.8900 H   0  0  0  0  0  0  0  0  0  0  0  0
    7.0230   -3.4010   -0.8900 H   0  0  0  0  0  0  0  0  0  0  0  0
    9.1490   -4.4980   -0.8900 H   0  0  0  0  0  0  0  0  0  0  0  0
    9.1490   -4.4980    0.8900 H   0  0  0  0  0  0  0  0  0  0  0  0
   11.4030   -3.2060    0.8900 H   0  0  0  0  0  0  0  0  0  0  0  0
   11.4030   -3.2060   -0.8900 H   0  0  0  0  0  0  0  0  0  0  0  0
   11.5320   -0.8170   -0.8900 H   0  0  0  0  0  0  0  0  0  0  0  0
   11.5320   -0.8170    0.8900 H   0  0  0  0  0  0  0  0  0  0  0  0
   13.6580   -1.9140   -0.8900 H   0  0  0  0  0  0  0  0  0  0  0  0
   13.6580   -1.9140    0.8900 H   0  0  0  0  0  0  0  0  0  0  0  0
   13.7720   -0.3650    0.0000 H   0  0  0  0  0  0  0  0  0  0  0  0
    0.0180  -10.0610    0.0000 H   0  0  0  0  0  0  0  0  0  0  0  0
  1  2  1  0  0  0  0
  1  3  1  0  0  0  0
  3  4  1  0  0  0  0
  3 22  1  0  0  0  0
  3 23  1  0  0  0  0
  4  5  1  0  0  0  0
  4 24  1  0  0  0  0
  4 25  1  0  0  0  0
  5  6  1  0  0  0  0
  5 26  1  0  0  0  0
  5 27  1  0  0  0  0
  6  7  1  0  0  0  0
  6 21  2  0  0  0  0
  7  8  2  0  0  0  0
  8  9  1  0  0  0  0
  9 10  1  0  0  0  0
  9 21  1  0  0  0  0
 10 11  1  0  0  0  0
 10 28  1  0  0  0  0
 10 29  1  0  0  0  0
 11 12  1  0  0  0  0
 11 30  1  0  0  0  0
 11 31  1  0  0  0  0
 12 13  1  0  0  0  0
 12 32  1  0  0  0  0
 12 33  1  0  0  0  0
 13 14  1  0  0  0  0
 13 34  1  0  0  0  0
 13 35  1  0  0  0  0
 14 15  1  0  0  0  0
 14 36  1  0  0  0  0
 14 37  1  0  0  0  0
 15 16  1  0  0  0  0
 15 38  1  0  0  0  0
 15 39  1  0  0  0  0
 16 17  1  0  0  0  0
 16 40  1  0  0  0  0
 16 41  1  0  0  0  0
 17 18  1  0  0  0  0
 18 19  1  0  0  0  0
 18 42  1  0  0  0  0
 18 43  1  0  0  0  0
 19 20  1  0  0  0  0
 19 44  1  0  0  0  0
 19 45  1  0  0  0  0
 20 46  1  0  0  0  0
 20 47  1  0  0  0  0
 20 48  1  0  0  0  0
 21 49  1  0  0  0  0
M  END
