1hwk_9.pdb
  MOE2019           3D

 48 48  0  0  0  0  0  0  0  0999 V2000
   -0.0650   12.1260    0.0000 O   0  0  0  0  0  0  0  0  0  0  0  0
   -0.4450   13.0070    0.0000 H   0  0  0  0  0  0  0  0  0  0  0  0
    1.4270   12.2760    0.0000 C   0  0  0  0  0  0  0  0  0  0  0  0
    2.3030   11.0580    0.0000 C   0  0  0  0  0  0  0  0  0  0  0  0
    3.7960   11.2080    0.0000 C   0  0  0  0  0  0  0  0  0  0  0  0
    4.6710    9.9900    0.0000 C   0  0  0  0  0  0  0  0  0  0  0  0
    6.1640   10.1400    0.0000 C   0  0  0  0  0  0  0  0  0  0  0  0
    6.9200   11.4360    0.0000 N   0  0  0  0  0  0  0  0  0  0  0  0
    8.3860   11.1170    0.0000 N   0  0  0  0  0  0  0  0  0  0  0  0
    8.5360    9.6240    0.0000 N   0  0  0  0  0  0  0  0  0  0  0  0
    9.8310    8.8680    0.0000 C   0  0  0  0  0  0  0  0  0  0  0  0
   11.1340    9.6120    0.0000 C   0  0  0  0  0  0  0  0  0  0  0  0
   12.4290    8.8560    0.0000 O   0  0  0  0  0  0  0  0  0  0  0  0
   13.7320    9.5990    0.0000 C   0  0  0  0  0  0  0  0  0  0  0  0
   15.0270    8.8430    0.0000 C   0  0  0  0  0  0  0  0  0  0  0  0
   16.3300    9.5870    0.0000 O   0  0  0  0  0  0  0  0  0  0  0  0
   17.6250    8.8310    0.0000 C   0  0  0  0  0  0  0  0  0  0  0  0
   18.9280    9.5750    0.0000 C   0  0  0  0  0  0  0  0  0  0  0  0
   20.2230    8.8190    0.0000 O   0  0  0  0  0  0  0  0  0  0  0  0
   21.5260    9.5620    0.0000 C   0  0  0  0  0  0  0  0  0  0  0  0
   22.8210    8.8060    0.0000 C   0  0  0  0  0  0  0  0  0  0  0  0
    7.1620    9.0210    0.0000 C   0  0  0  0  0  0  0  0  0  0  0  0
    1.6860   12.8500   -0.8900 H   0  0  0  0  0  0  0  0  0  0  0  0
    1.6860   12.8500    0.8900 H   0  0  0  0  0  0  0  0  0  0  0  0
    2.0440   10.4840    0.8900 H   0  0  0  0  0  0  0  0  0  0  0  0
    2.0440   10.4840   -0.8900 H   0  0  0  0  0  0  0  0  0  0  0  0
    4.0550   11.7820   -0.8900 H   0  0  0  0  0  0  0  0  0  0  0  0
    4.0550   11.7820    0.8900 H   0  0  0  0  0  0  0  0  0  0  0  0
    4.4120    9.4160   -0.8900 H   0  0  0  0  0  0  0  0  0  0  0  0
    4.4120    9.4160    0.8900 H   0  0  0  0  0  0  0  0  0  0  0  0
    9.8280    8.2390    0.8900 H   0  0  0  0  0  0  0  0  0  0  0  0
    9.8280    8.2390   -0.8900 H   0  0  0  0  0  0  0  0  0  0  0  0
   11.1370   10.2410    0.8900 H   0  0  0  0  0  0  0  0  0  0  0  0
   11.1370   10.2410   -0.8900 H   0  0  0  0  0  0  0  0  0  0  0  0
   13.7350   10.2280   -0.8900 H   0  0  0  0  0  0  0  0  0  0  0  0
   13.7350   10.2280    0.8900 H   0  0  0  0  0  0  0  0  0  0  0  0
   15.0240    8.2140   -0.8900 H   0  0  0  0  0  0  0  0  0  0  0  0
   15.0240    8.2140    0.8900 H   0  0  0  0  0  0  0  0  0  0  0  0
   17.6220    8.2020    0.8900 H   0  0  0  0  0  0  0  0  0  0  0  0
   17.6220    8.2020   -0.8900 H   0  0  0  0  0  0  0  0  0  0  0  0
   18.9310   10.2040    0.8900 H   0  0  0  0  0  0  0  0  0  0  0  0
   18.9310   10.2040   -0.8900 H   0  0  0  0  0  0  0  0  0  0  0  0
   21.5290   10.1910   -0.8900 H   0  0  0  0  0  0  0  0  0  0  0  0
   21.5290   10.1910    0.8900 H   0  0  0  0  0  0  0  0  0  0  0  0
   22.8180    8.1770   -0.8900 H   0  0  0  0  0  0  0  0  0  0  0  0
   22.8180    8.1770    0.8900 H   0  0  0  0  0  0  0  0  0  0  0  0
   23.6940    9.4590    0.0000 H   0  0  0  0  0  0  0  0  0  0  0  0
    6.9320    7.9660    0.0000 H   0  0  0  0  0  0  0  0  0  0  0  0
  1  2  1  0  0  0  0
  1  3  1  0  0  0  0
  3  4  1  0  0  0  0
  3 23  1  0  0  0  0
  3 24  1  0  0  0  0
  4  5  1  0  0  0  0
  4 25  1  0  0  0  0
  4 26  1  0  0  0  0
  5  6  1  0  0  0  0
  5 27  1  0  0  0  0
  5 28  1  0  0  0  0
  6  7  1  0  0  0  0
  6 29  1  0  0  0  0
  6 30  1  0  0  0  0
  7  8  1  0  0  0  0
  7 22  2  0  0  0  0
  8  9  2  0  0  0  0
  9 10  1  0  0  0  0
 10 11  1  0  0  0  0
 10 22  1  0  0  0  0
 11 12  1  0  0  0  0
 11 31  1  0  0  0  0
 11 32  1  0  0  0  0
 12 13  1  0  0  0  0
 12 33  1  0  0  0  0
 12 34  1  0  0  0  0
 13 14  1  0  0  0  0
 14 15  1  0  0  0  0
 14 35  1  0  0  0  0
 14 36  1  0  0  0  0
 15 16  1  0  0  0  0
 15 37  1  0  0  0  0
 15 38  1  0  0  0  0
 16 17  1  0  0  0  0
 17 18  1  0  0  0  0
 17 39  1  0  0  0  0
 17 40  1  0  0  0  0
 18 19  1  0  0  0  0
 18 41  1  0  0  0  0
 18 42  1  0  0  0  0
 19 20  1  0  0  0  0
 20 21  1  0  0  0  0
 20 43  1  0  0  0  0
 20 44  1  0  0  0  0
 21 45  1  0  0  0  0
 21 46  1  0  0  0  0
 21 47  1  0  0  0  0
 22 48  1  0  0  0  0
M  END
