1hwk_8.pdb
  MOE2019           3D

 45 45  0  0  0  0  0  0  0  0999 V2000
    0.3090   11.2480    0.0000 O   0  0  0  0  0  0  0  0  0  0  0  0
    0.1090   12.1870    0.0000 H   0  0  0  0  0  0  0  0  0  0  0  0
    1.8020   11.1030    0.0000 C   0  0  0  0  0  0  0  0  0  0  0  0
    2.4230    9.7370    0.0000 C   0  0  0  0  0  0  0  0  0  0  0  0
    3.9160    9.5920    0.0000 C   0  0  0  0  0  0  0  0  0  0  0  0
    4.5370    8.2260    0.0000 C   0  0  0  0  0  0  0  0  0  0  0  0
    3.7970    6.9220    0.0000 N   0  0  0  0  0  0  0  0  0  0  0  0
    4.8090    5.8150    0.0000 N   0  0  0  0  0  0  0  0  0  0  0  0
    6.1740    6.4350    0.0000 N   0  0  0  0  0  0  0  0  0  0  0  0
    7.4790    5.6950    0.0000 C   0  0  0  0  0  0  0  0  0  0  0  0
    8.7720    6.4550    0.0000 C   0  0  0  0  0  0  0  0  0  0  0  0
   10.0770    5.7150    0.0000 O   0  0  0  0  0  0  0  0  0  0  0  0
   11.3700    6.4750    0.0000 C   0  0  0  0  0  0  0  0  0  0  0  0
   12.6750    5.7350    0.0000 C   0  0  0  0  0  0  0  0  0  0  0  0
   13.9680    6.4950    0.0000 O   0  0  0  0  0  0  0  0  0  0  0  0
   15.2730    5.7550    0.0000 C   0  0  0  0  0  0  0  0  0  0  0  0
   16.5660    6.5150    0.0000 C   0  0  0  0  0  0  0  0  0  0  0  0
   17.8710    5.7750    0.0000 O   0  0  0  0  0  0  0  0  0  0  0  0
   19.1640    6.5350    0.0000 C   0  0  0  0  0  0  0  0  0  0  0  0
   20.4690    5.7950    0.0000 C   0  0  0  0  0  0  0  0  0  0  0  0
    6.0060    7.9260    0.0000 C   0  0  0  0  0  0  0  0  0  0  0  0
    2.1680   11.6150   -0.8900 H   0  0  0  0  0  0  0  0  0  0  0  0
    2.1680   11.6150    0.8900 H   0  0  0  0  0  0  0  0  0  0  0  0
    2.0570    9.2250    0.8900 H   0  0  0  0  0  0  0  0  0  0  0  0
    2.0570    9.2250   -0.8900 H   0  0  0  0  0  0  0  0  0  0  0  0
    4.2820   10.1040    0.8900 H   0  0  0  0  0  0  0  0  0  0  0  0
    4.2820   10.1040   -0.8900 H   0  0  0  0  0  0  0  0  0  0  0  0
    7.4840    5.0660    0.8900 H   0  0  0  0  0  0  0  0  0  0  0  0
    7.4840    5.0660   -0.8900 H   0  0  0  0  0  0  0  0  0  0  0  0
    8.7670    7.0840    0.8900 H   0  0  0  0  0  0  0  0  0  0  0  0
    8.7670    7.0840   -0.8900 H   0  0  0  0  0  0  0  0  0  0  0  0
   11.3650    7.1040   -0.8900 H   0  0  0  0  0  0  0  0  0  0  0  0
   11.3650    7.1040    0.8900 H   0  0  0  0  0  0  0  0  0  0  0  0
   12.6800    5.1060   -0.8900 H   0  0  0  0  0  0  0  0  0  0  0  0
   12.6800    5.1060    0.8900 H   0  0  0  0  0  0  0  0  0  0  0  0
   15.2780    5.1260    0.8900 H   0  0  0  0  0  0  0  0  0  0  0  0
   15.2780    5.1260   -0.8900 H   0  0  0  0  0  0  0  0  0  0  0  0
   16.5610    7.1440    0.8900 H   0  0  0  0  0  0  0  0  0  0  0  0
   16.5610    7.1440   -0.8900 H   0  0  0  0  0  0  0  0  0  0  0  0
   19.1590    7.1640   -0.8900 H   0  0  0  0  0  0  0  0  0  0  0  0
   19.1590    7.1640    0.8900 H   0  0  0  0  0  0  0  0  0  0  0  0
   20.4740    5.1660   -0.8900 H   0  0  0  0  0  0  0  0  0  0  0  0
   20.4740    5.1660    0.8900 H   0  0  0  0  0  0  0  0  0  0  0  0
   21.3330    6.4590    0.0000 H   0  0  0  0  0  0  0  0  0  0  0  0
    6.8030    8.6550    0.0000 H   0  0  0  0  0  0  0  0  0  0  0  0
  1  2  1  0  0  0  0
  1  3  1  0  0  0  0
  3  4  1  0  0  0  0
  3 22  1  0  0  0  0
  3 23  1  0  0  0  0
  4  5  1  0  0  0  0
  4 24  1  0  0  0  0
  4 25  1  0  0  0  0
  5  6  1  0  0  0  0
  5 26  1  0  0  0  0
  5 27  1  0  0  0  0
  6  7  1  0  0  0  0
  6 21  2  0  0  0  0
  7  8  2  0  0  0  0
  8  9  1  0  0  0  0
  9 10  1  0  0  0  0
  9 21  1  0  0  0  0
 10 11  1  0  0  0  0
 10 28  1  0  0  0  0
 10 29  1  0  0  0  0
 11 12  1  0  0  0  0
 11 30  1  0  0  0  0
 11 31  1  0  0  0  0
 12 13  1  0  0  0  0
 13 14  1  0  0  0  0
 13 32  1  0  0  0  0
 13 33  1  0  0  0  0
 14 15  1  0  0  0  0
 14 34  1  0  0  0  0
 14 35  1  0  0  0  0
 15 16  1  0  0  0  0
 16 17  1  0  0  0  0
 16 36  1  0  0  0  0
 16 37  1  0  0  0  0
 17 18  1  0  0  0  0
 17 38  1  0  0  0  0
 17 39  1  0  0  0  0
 18 19  1  0  0  0  0
 19 20  1  0  0  0  0
 19 40  1  0  0  0  0
 19 41  1  0  0  0  0
 20 42  1  0  0  0  0
 20 43  1  0  0  0  0
 20 44  1  0  0  0  0
 21 45  1  0  0  0  0
M  END
