1hwk_14.pdb
  MOE2019           3D

 65 65  0  0  0  0  0  0  0  0999 V2000
   -4.0710   14.1960    0.0000 O   0  0  0  0  0  0  0  0  0  0  0  0
   -4.2730   13.2580    0.0000 H   0  0  0  0  0  0  0  0  0  0  0  0
   -2.5780   14.3380    0.0000 C   0  0  0  0  0  0  0  0  0  0  0  0
   -1.9540   15.7020    0.0000 C   0  0  0  0  0  0  0  0  0  0  0  0
   -0.4610   15.8440    0.0000 C   0  0  0  0  0  0  0  0  0  0  0  0
    0.1630   17.2080    0.0000 C   0  0  0  0  0  0  0  0  0  0  0  0
    1.6560   17.3500    0.0000 C   0  0  0  0  0  0  0  0  0  0  0  0
    2.2800   18.7140    0.0000 C   0  0  0  0  0  0  0  0  0  0  0  0
    1.5430   20.0210    0.0000 N   0  0  0  0  0  0  0  0  0  0  0  0
    2.5580   21.1250    0.0000 N   0  0  0  0  0  0  0  0  0  0  0  0
    3.9220   20.5020    0.0000 N   0  0  0  0  0  0  0  0  0  0  0  0
    5.2280   21.2390    0.0000 C   0  0  0  0  0  0  0  0  0  0  0  0
    6.5200   20.4760    0.0000 C   0  0  0  0  0  0  0  0  0  0  0  0
    7.8260   21.2130    0.0000 O   0  0  0  0  0  0  0  0  0  0  0  0
    9.1180   20.4500    0.0000 C   0  0  0  0  0  0  0  0  0  0  0  0
   10.4240   21.1870    0.0000 C   0  0  0  0  0  0  0  0  0  0  0  0
   11.7160   20.4240    0.0000 O   0  0  0  0  0  0  0  0  0  0  0  0
   13.0220   21.1610    0.0000 C   0  0  0  0  0  0  0  0  0  0  0  0
   14.3140   20.3980    0.0000 C   0  0  0  0  0  0  0  0  0  0  0  0
   15.6200   21.1350    0.0000 O   0  0  0  0  0  0  0  0  0  0  0  0
   16.9120   20.3730    0.0000 C   0  0  0  0  0  0  0  0  0  0  0  0
   18.2180   21.1100    0.0000 C   0  0  0  0  0  0  0  0  0  0  0  0
   19.5100   20.3470    0.0000 O   0  0  0  0  0  0  0  0  0  0  0  0
   20.8160   21.0840    0.0000 C   0  0  0  0  0  0  0  0  0  0  0  0
   22.1070   20.3210    0.0000 C   0  0  0  0  0  0  0  0  0  0  0  0
   23.4140   21.0580    0.0000 O   0  0  0  0  0  0  0  0  0  0  0  0
   24.7050   20.2950    0.0000 C   0  0  0  0  0  0  0  0  0  0  0  0
   26.0120   21.0320    0.0000 C   0  0  0  0  0  0  0  0  0  0  0  0
    3.7500   19.0110    0.0000 C   0  0  0  0  0  0  0  0  0  0  0  0
   -2.2130   13.8250    0.8900 H   0  0  0  0  0  0  0  0  0  0  0  0
   -2.2130   13.8250   -0.8900 H   0  0  0  0  0  0  0  0  0  0  0  0
   -2.3190   16.2150   -0.8900 H   0  0  0  0  0  0  0  0  0  0  0  0
   -2.3190   16.2150    0.8900 H   0  0  0  0  0  0  0  0  0  0  0  0
   -0.0960   15.3310    0.8900 H   0  0  0  0  0  0  0  0  0  0  0  0
   -0.0960   15.3310   -0.8900 H   0  0  0  0  0  0  0  0  0  0  0  0
   -0.2020   17.7210    0.8900 H   0  0  0  0  0  0  0  0  0  0  0  0
   -0.2020   17.7210   -0.8900 H   0  0  0  0  0  0  0  0  0  0  0  0
    2.0210   16.8370   -0.8900 H   0  0  0  0  0  0  0  0  0  0  0  0
    2.0210   16.8370    0.8900 H   0  0  0  0  0  0  0  0  0  0  0  0
    5.2340   21.8680   -0.8900 H   0  0  0  0  0  0  0  0  0  0  0  0
    5.2340   21.8680    0.8900 H   0  0  0  0  0  0  0  0  0  0  0  0
    6.5140   19.8470   -0.8900 H   0  0  0  0  0  0  0  0  0  0  0  0
    6.5140   19.8470    0.8900 H   0  0  0  0  0  0  0  0  0  0  0  0
    9.1120   19.8210    0.8900 H   0  0  0  0  0  0  0  0  0  0  0  0
    9.1120   19.8210   -0.8900 H   0  0  0  0  0  0  0  0  0  0  0  0
   10.4300   21.8160    0.8900 H   0  0  0  0  0  0  0  0  0  0  0  0
   10.4300   21.8160   -0.8900 H   0  0  0  0  0  0  0  0  0  0  0  0
   13.0280   21.7900   -0.8900 H   0  0  0  0  0  0  0  0  0  0  0  0
   13.0280   21.7900    0.8900 H   0  0  0  0  0  0  0  0  0  0  0  0
   14.3080   19.7690   -0.8900 H   0  0  0  0  0  0  0  0  0  0  0  0
   14.3080   19.7690    0.8900 H   0  0  0  0  0  0  0  0  0  0  0  0
   16.9060   19.7440    0.8900 H   0  0  0  0  0  0  0  0  0  0  0  0
   16.9060   19.7440   -0.8900 H   0  0  0  0  0  0  0  0  0  0  0  0
   18.2240   21.7390    0.8900 H   0  0  0  0  0  0  0  0  0  0  0  0
   18.2240   21.7390   -0.8900 H   0  0  0  0  0  0  0  0  0  0  0  0
   20.8220   21.7130   -0.8900 H   0  0  0  0  0  0  0  0  0  0  0  0
   20.8220   21.7130    0.8900 H   0  0  0  0  0  0  0  0  0  0  0  0
   22.1010   19.6920   -0.8900 H   0  0  0  0  0  0  0  0  0  0  0  0
   22.1010   19.6920    0.8900 H   0  0  0  0  0  0  0  0  0  0  0  0
   24.6990   19.6660    0.8900 H   0  0  0  0  0  0  0  0  0  0  0  0
   24.6990   19.6660   -0.8900 H   0  0  0  0  0  0  0  0  0  0  0  0
   26.0180   21.6610    0.8900 H   0  0  0  0  0  0  0  0  0  0  0  0
   26.0180   21.6610   -0.8900 H   0  0  0  0  0  0  0  0  0  0  0  0
   26.8750   20.3660    0.0000 H   0  0  0  0  0  0  0  0  0  0  0  0
    4.5450   18.2800    0.0000 H   0  0  0  0  0  0  0  0  0  0  0  0
  1  2  1  0  0  0  0
  1  3  1  0  0  0  0
  3  4  1  0  0  0  0
  3 30  1  0  0  0  0
  3 31  1  0  0  0  0
  4  5  1  0  0  0  0
  4 32  1  0  0  0  0
  4 33  1  0  0  0  0
  5  6  1  0  0  0  0
  5 34  1  0  0  0  0
  5 35  1  0  0  0  0
  6  7  1  0  0  0  0
  6 36  1  0  0  0  0
  6 37  1  0  0  0  0
  7  8  1  0  0  0  0
  7 38  1  0  0  0  0
  7 39  1  0  0  0  0
  8  9  1  0  0  0  0
  8 29  2  0  0  0  0
  9 10  2  0  0  0  0
 10 11  1  0  0  0  0
 11 12  1  0  0  0  0
 11 29  1  0  0  0  0
 12 13  1  0  0  0  0
 12 40  1  0  0  0  0
 12 41  1  0  0  0  0
 13 14  1  0  0  0  0
 13 42  1  0  0  0  0
 13 43  1  0  0  0  0
 14 15  1  0  0  0  0
 15 16  1  0  0  0  0
 15 44  1  0  0  0  0
 15 45  1  0  0  0  0
 16 17  1  0  0  0  0
 16 46  1  0  0  0  0
 16 47  1  0  0  0  0
 17 18  1  0  0  0  0
 18 19  1  0  0  0  0
 18 48  1  0  0  0  0
 18 49  1  0  0  0  0
 19 20  1  0  0  0  0
 19 50  1  0  0  0  0
 19 51  1  0  0  0  0
 20 21  1  0  0  0  0
 21 22  1  0  0  0  0
 21 52  1  0  0  0  0
 21 53  1  0  0  0  0
 22 23  1  0  0  0  0
 22 54  1  0  0  0  0
 22 55  1  0  0  0  0
 23 24  1  0  0  0  0
 24 25  1  0  0  0  0
 24 56  1  0  0  0  0
 24 57  1  0  0  0  0
 25 26  1  0  0  0  0
 25 58  1  0  0  0  0
 25 59  1  0  0  0  0
 26 27  1  0  0  0  0
 27 28  1  0  0  0  0
 27 60  1  0  0  0  0
 27 61  1  0  0  0  0
 28 62  1  0  0  0  0
 28 63  1  0  0  0  0
 28 64  1  0  0  0  0
 29 65  1  0  0  0  0
M  END
