1hwk_15.pdb
  MOE2019           3D

 33 33  0  0  0  0  0  0  0  0999 V2000
    8.0880    6.0480    0.0000 O   0  0  0  0  0  0  0  0  0  0  0  0
    7.1760    5.7490    0.0000 H   0  0  0  0  0  0  0  0  0  0  0  0
    8.9640    4.8310    0.0000 C   0  0  0  0  0  0  0  0  0  0  0  0
   10.4560    4.9810    0.0000 C   0  0  0  0  0  0  0  0  0  0  0  0
   11.2120    6.2770    0.0000 N   0  0  0  0  0  0  0  0  0  0  0  0
   12.6780    5.9590    0.0000 N   0  0  0  0  0  0  0  0  0  0  0  0
   12.8280    4.4660    0.0000 N   0  0  0  0  0  0  0  0  0  0  0  0
   14.1240    3.7110    0.0000 C   0  0  0  0  0  0  0  0  0  0  0  0
   15.4260    4.4550    0.0000 C   0  0  0  0  0  0  0  0  0  0  0  0
   16.7220    3.6990    0.0000 C   0  0  0  0  0  0  0  0  0  0  0  0
   18.0240    4.4440    0.0000 C   0  0  0  0  0  0  0  0  0  0  0  0
   19.3200    3.6880    0.0000 C   0  0  0  0  0  0  0  0  0  0  0  0
   20.6220    4.4320    0.0000 C   0  0  0  0  0  0  0  0  0  0  0  0
   21.9180    3.6770    0.0000 C   0  0  0  0  0  0  0  0  0  0  0  0
   11.4550    3.8620    0.0000 C   0  0  0  0  0  0  0  0  0  0  0  0
    8.7050    4.2570    0.8900 H   0  0  0  0  0  0  0  0  0  0  0  0
    8.7050    4.2570   -0.8900 H   0  0  0  0  0  0  0  0  0  0  0  0
   14.1210    3.0820    0.8900 H   0  0  0  0  0  0  0  0  0  0  0  0
   14.1210    3.0820   -0.8900 H   0  0  0  0  0  0  0  0  0  0  0  0
   15.4290    5.0840   -0.8900 H   0  0  0  0  0  0  0  0  0  0  0  0
   15.4290    5.0840    0.8900 H   0  0  0  0  0  0  0  0  0  0  0  0
   16.7190    3.0700    0.8900 H   0  0  0  0  0  0  0  0  0  0  0  0
   16.7190    3.0700   -0.8900 H   0  0  0  0  0  0  0  0  0  0  0  0
   18.0270    5.0730   -0.8900 H   0  0  0  0  0  0  0  0  0  0  0  0
   18.0270    5.0730    0.8900 H   0  0  0  0  0  0  0  0  0  0  0  0
   19.3170    3.0590   -0.8900 H   0  0  0  0  0  0  0  0  0  0  0  0
   19.3170    3.0590    0.8900 H   0  0  0  0  0  0  0  0  0  0  0  0
   20.6250    5.0610    0.8900 H   0  0  0  0  0  0  0  0  0  0  0  0
   20.6250    5.0610   -0.8900 H   0  0  0  0  0  0  0  0  0  0  0  0
   21.9150    3.0480   -0.8900 H   0  0  0  0  0  0  0  0  0  0  0  0
   21.9150    3.0480    0.8900 H   0  0  0  0  0  0  0  0  0  0  0  0
   22.7910    4.3300    0.0000 H   0  0  0  0  0  0  0  0  0  0  0  0
   11.2260    2.8070    0.0000 H   0  0  0  0  0  0  0  0  0  0  0  0
  1  2  1  0  0  0  0
  1  3  1  0  0  0  0
  3  4  1  0  0  0  0
  3 16  1  0  0  0  0
  3 17  1  0  0  0  0
  4  5  1  0  0  0  0
  4 15  2  0  0  0  0
  5  6  2  0  0  0  0
  6  7  1  0  0  0  0
  7  8  1  0  0  0  0
  7 15  1  0  0  0  0
  8  9  1  0  0  0  0
  8 18  1  0  0  0  0
  8 19  1  0  0  0  0
  9 10  1  0  0  0  0
  9 20  1  0  0  0  0
  9 21  1  0  0  0  0
 10 11  1  0  0  0  0
 10 22  1  0  0  0  0
 10 23  1  0  0  0  0
 11 12  1  0  0  0  0
 11 24  1  0  0  0  0
 11 25  1  0  0  0  0
 12 13  1  0  0  0  0
 12 26  1  0  0  0  0
 12 27  1  0  0  0  0
 13 14  1  0  0  0  0
 13 28  1  0  0  0  0
 13 29  1  0  0  0  0
 14 30  1  0  0  0  0
 14 31  1  0  0  0  0
 14 32  1  0  0  0  0
 15 33  1  0  0  0  0
M  END
