2euf_14.pdb
  MOE2019           3D

 24 24  0  0  0  0  0  0  0  0999 V2000
   12.8140  -11.5890    0.0000 C   0  0  0  0  0  0  0  0  0  0  0  0
   14.3070  -11.4470    0.0000 C   0  0  0  0  0  0  0  0  0  0  0  0
   15.1770  -12.6690    0.0000 O   0  0  0  0  0  0  0  0  0  0  0  0
   16.6700  -12.5270    0.0000 C   0  0  0  0  0  0  0  0  0  0  0  0
   17.5400  -13.7490    0.0000 C   0  0  0  0  0  0  0  0  0  0  0  0
   19.0330  -13.6060    0.0000 N   0  0  0  0  0  0  0  0  0  0  0  0
   19.7960  -12.3150    0.0000 N   0  0  0  0  0  0  0  0  0  0  0  0
   21.2600  -12.6410    0.0000 N   0  0  0  0  0  0  0  0  0  0  0  0
   21.4020  -14.1340    0.0000 C   0  0  0  0  0  0  0  0  0  0  0  0
   22.6940  -14.8970    0.0000 C   0  0  0  0  0  0  0  0  0  0  0  0
   20.0260  -14.7310    0.0000 C   0  0  0  0  0  0  0  0  0  0  0  0
   12.5520  -12.1610    0.8900 H   0  0  0  0  0  0  0  0  0  0  0  0
   12.5520  -12.1610   -0.8900 H   0  0  0  0  0  0  0  0  0  0  0  0
   12.2970  -10.6300    0.0000 H   0  0  0  0  0  0  0  0  0  0  0  0
   14.5690  -10.8750    0.8900 H   0  0  0  0  0  0  0  0  0  0  0  0
   14.5690  -10.8750   -0.8900 H   0  0  0  0  0  0  0  0  0  0  0  0
   16.9320  -11.9550   -0.8900 H   0  0  0  0  0  0  0  0  0  0  0  0
   16.9320  -11.9550    0.8900 H   0  0  0  0  0  0  0  0  0  0  0  0
   17.2790  -14.3210   -0.8900 H   0  0  0  0  0  0  0  0  0  0  0  0
   17.2790  -14.3210    0.8900 H   0  0  0  0  0  0  0  0  0  0  0  0
   22.6880  -15.5260   -0.8900 H   0  0  0  0  0  0  0  0  0  0  0  0
   22.6880  -15.5260    0.8900 H   0  0  0  0  0  0  0  0  0  0  0  0
   23.5700  -14.2480    0.0000 H   0  0  0  0  0  0  0  0  0  0  0  0
   19.7910  -15.7850    0.0000 H   0  0  0  0  0  0  0  0  0  0  0  0
  1  2  1  0  0  0  0
  1 12  1  0  0  0  0
  1 13  1  0  0  0  0
  1 14  1  0  0  0  0
  2  3  1  0  0  0  0
  2 15  1  0  0  0  0
  2 16  1  0  0  0  0
  3  4  1  0  0  0  0
  4  5  1  0  0  0  0
  4 17  1  0  0  0  0
  4 18  1  0  0  0  0
  5  6  1  0  0  0  0
  5 19  1  0  0  0  0
  5 20  1  0  0  0  0
  6  7  1  0  0  0  0
  6 11  1  0  0  0  0
  7  8  2  0  0  0  0
  8  9  1  0  0  0  0
  9 10  1  0  0  0  0
  9 11  2  0  0  0  0
 10 21  1  0  0  0  0
 10 22  1  0  0  0  0
 10 23  1  0  0  0  0
 11 24  1  0  0  0  0
M  END
