2euf_16.pdb
  MOE2019           3D

 38 38  0  0  0  0  0  0  0  0999 V2000
  -16.4260   -6.6110    0.0000 C   0  0  0  0  0  0  0  0  0  0  0  0
  -14.9320   -6.4800    0.0000 C   0  0  0  0  0  0  0  0  0  0  0  0
  -14.2980   -5.1210    0.0000 O   0  0  0  0  0  0  0  0  0  0  0  0
  -12.8040   -4.9900    0.0000 C   0  0  0  0  0  0  0  0  0  0  0  0
  -12.1700   -3.6300    0.0000 C   0  0  0  0  0  0  0  0  0  0  0  0
  -10.6760   -3.4990    0.0000 O   0  0  0  0  0  0  0  0  0  0  0  0
  -10.0420   -2.1390    0.0000 C   0  0  0  0  0  0  0  0  0  0  0  0
   -8.5480   -2.0080    0.0000 C   0  0  0  0  0  0  0  0  0  0  0  0
   -7.9140   -0.6490    0.0000 O   0  0  0  0  0  0  0  0  0  0  0  0
   -6.4200   -0.5180    0.0000 C   0  0  0  0  0  0  0  0  0  0  0  0
   -5.7860    0.8420    0.0000 C   0  0  0  0  0  0  0  0  0  0  0  0
   -4.2920    0.9730    0.0000 N   0  0  0  0  0  0  0  0  0  0  0  0
   -3.5200    2.2590    0.0000 N   0  0  0  0  0  0  0  0  0  0  0  0
   -2.0580    1.9220    0.0000 N   0  0  0  0  0  0  0  0  0  0  0  0
   -1.9270    0.4280    0.0000 C   0  0  0  0  0  0  0  0  0  0  0  0
   -0.6410   -0.3450    0.0000 C   0  0  0  0  0  0  0  0  0  0  0  0
   -3.3080   -0.1590    0.0000 C   0  0  0  0  0  0  0  0  0  0  0  0
  -16.7870   -6.0960   -0.8900 H   0  0  0  0  0  0  0  0  0  0  0  0
  -16.7870   -6.0960    0.8900 H   0  0  0  0  0  0  0  0  0  0  0  0
  -16.7610   -7.6480    0.0000 H   0  0  0  0  0  0  0  0  0  0  0  0
  -14.5710   -6.9960   -0.8900 H   0  0  0  0  0  0  0  0  0  0  0  0
  -14.5710   -6.9960    0.8900 H   0  0  0  0  0  0  0  0  0  0  0  0
  -12.4430   -5.5050    0.8900 H   0  0  0  0  0  0  0  0  0  0  0  0
  -12.4430   -5.5050   -0.8900 H   0  0  0  0  0  0  0  0  0  0  0  0
  -12.5310   -3.1150    0.8900 H   0  0  0  0  0  0  0  0  0  0  0  0
  -12.5310   -3.1150   -0.8900 H   0  0  0  0  0  0  0  0  0  0  0  0
  -10.4030   -1.6240   -0.8900 H   0  0  0  0  0  0  0  0  0  0  0  0
  -10.4030   -1.6240    0.8900 H   0  0  0  0  0  0  0  0  0  0  0  0
   -8.1870   -2.5240   -0.8900 H   0  0  0  0  0  0  0  0  0  0  0  0
   -8.1870   -2.5240    0.8900 H   0  0  0  0  0  0  0  0  0  0  0  0
   -6.0590   -1.0330    0.8900 H   0  0  0  0  0  0  0  0  0  0  0  0
   -6.0590   -1.0330   -0.8900 H   0  0  0  0  0  0  0  0  0  0  0  0
   -6.1470    1.3570    0.8900 H   0  0  0  0  0  0  0  0  0  0  0  0
   -6.1470    1.3570   -0.8900 H   0  0  0  0  0  0  0  0  0  0  0  0
   -0.6520   -0.9740   -0.8900 H   0  0  0  0  0  0  0  0  0  0  0  0
   -0.6520   -0.9740    0.8900 H   0  0  0  0  0  0  0  0  0  0  0  0
    0.2400    0.2970    0.0000 H   0  0  0  0  0  0  0  0  0  0  0  0
   -3.5510   -1.2110    0.0000 H   0  0  0  0  0  0  0  0  0  0  0  0
  1  2  1  0  0  0  0
  1 18  1  0  0  0  0
  1 19  1  0  0  0  0
  1 20  1  0  0  0  0
  2  3  1  0  0  0  0
  2 21  1  0  0  0  0
  2 22  1  0  0  0  0
  3  4  1  0  0  0  0
  4  5  1  0  0  0  0
  4 23  1  0  0  0  0
  4 24  1  0  0  0  0
  5  6  1  0  0  0  0
  5 25  1  0  0  0  0
  5 26  1  0  0  0  0
  6  7  1  0  0  0  0
  7  8  1  0  0  0  0
  7 27  1  0  0  0  0
  7 28  1  0  0  0  0
  8  9  1  0  0  0  0
  8 29  1  0  0  0  0
  8 30  1  0  0  0  0
  9 10  1  0  0  0  0
 10 11  1  0  0  0  0
 10 31  1  0  0  0  0
 10 32  1  0  0  0  0
 11 12  1  0  0  0  0
 11 33  1  0  0  0  0
 11 34  1  0  0  0  0
 12 13  1  0  0  0  0
 12 17  1  0  0  0  0
 13 14  2  0  0  0  0
 14 15  1  0  0  0  0
 15 16  1  0  0  0  0
 15 17  2  0  0  0  0
 16 35  1  0  0  0  0
 16 36  1  0  0  0  0
 16 37  1  0  0  0  0
 17 38  1  0  0  0  0
M  END
