2euf_2.pdb
  MOE2019           3D

 38 38  0  0  0  0  0  0  0  0999 V2000
   17.2280    5.5250    0.0000 C   0  0  0  0  0  0  0  0  0  0  0  0
   17.9170    4.1930    0.0000 C   0  0  0  0  0  0  0  0  0  0  0  0
   17.2450    2.8520    0.0000 N   0  0  0  0  0  0  0  0  0  0  0  0
   18.3120    1.7980    0.0000 N   0  0  0  0  0  0  0  0  0  0  0  0
   19.6440    2.4870    0.0000 N   0  0  0  0  0  0  0  0  0  0  0  0
   20.9850    1.8150    0.0000 C   0  0  0  0  0  0  0  0  0  0  0  0
   22.2380    2.6400    0.0000 C   0  0  0  0  0  0  0  0  0  0  0  0
   23.5780    1.9670    0.0000 O   0  0  0  0  0  0  0  0  0  0  0  0
   24.8310    2.7920    0.0000 C   0  0  0  0  0  0  0  0  0  0  0  0
   26.1720    2.1200    0.0000 C   0  0  0  0  0  0  0  0  0  0  0  0
   27.4250    2.9440    0.0000 O   0  0  0  0  0  0  0  0  0  0  0  0
   28.7660    2.2720    0.0000 C   0  0  0  0  0  0  0  0  0  0  0  0
   30.0180    3.0970    0.0000 C   0  0  0  0  0  0  0  0  0  0  0  0
   31.3590    2.4240    0.0000 O   0  0  0  0  0  0  0  0  0  0  0  0
   32.6120    3.2490    0.0000 C   0  0  0  0  0  0  0  0  0  0  0  0
   33.9530    2.5770    0.0000 C   0  0  0  0  0  0  0  0  0  0  0  0
   19.4000    3.9670    0.0000 C   0  0  0  0  0  0  0  0  0  0  0  0
   17.5670    6.0550    0.8900 H   0  0  0  0  0  0  0  0  0  0  0  0
   17.5670    6.0550   -0.8900 H   0  0  0  0  0  0  0  0  0  0  0  0
   16.1410    5.4400    0.0000 H   0  0  0  0  0  0  0  0  0  0  0  0
   21.0220    1.1870   -0.8900 H   0  0  0  0  0  0  0  0  0  0  0  0
   21.0220    1.1870    0.8900 H   0  0  0  0  0  0  0  0  0  0  0  0
   22.2010    3.2680    0.8900 H   0  0  0  0  0  0  0  0  0  0  0  0
   22.2010    3.2680   -0.8900 H   0  0  0  0  0  0  0  0  0  0  0  0
   24.7940    3.4200    0.8900 H   0  0  0  0  0  0  0  0  0  0  0  0
   24.7940    3.4200   -0.8900 H   0  0  0  0  0  0  0  0  0  0  0  0
   26.2090    1.4920   -0.8900 H   0  0  0  0  0  0  0  0  0  0  0  0
   26.2090    1.4920    0.8900 H   0  0  0  0  0  0  0  0  0  0  0  0
   28.8030    1.6440   -0.8900 H   0  0  0  0  0  0  0  0  0  0  0  0
   28.8030    1.6440    0.8900 H   0  0  0  0  0  0  0  0  0  0  0  0
   29.9810    3.7250    0.8900 H   0  0  0  0  0  0  0  0  0  0  0  0
   29.9810    3.7250   -0.8900 H   0  0  0  0  0  0  0  0  0  0  0  0
   32.5750    3.8770    0.8900 H   0  0  0  0  0  0  0  0  0  0  0  0
   32.5750    3.8770   -0.8900 H   0  0  0  0  0  0  0  0  0  0  0  0
   33.9900    1.9490   -0.8900 H   0  0  0  0  0  0  0  0  0  0  0  0
   34.7820    3.2840    0.0000 H   0  0  0  0  0  0  0  0  0  0  0  0
   33.9900    1.9490    0.8900 H   0  0  0  0  0  0  0  0  0  0  0  0
   20.1590    4.7350    0.0000 H   0  0  0  0  0  0  0  0  0  0  0  0
  1  2  1  0  0  0  0
  1 18  1  0  0  0  0
  1 19  1  0  0  0  0
  1 20  1  0  0  0  0
  2  3  1  0  0  0  0
  2 17  2  0  0  0  0
  3  4  2  0  0  0  0
  4  5  1  0  0  0  0
  5  6  1  0  0  0  0
  5 17  1  0  0  0  0
  6  7  1  0  0  0  0
  6 21  1  0  0  0  0
  6 22  1  0  0  0  0
  7  8  1  0  0  0  0
  7 23  1  0  0  0  0
  7 24  1  0  0  0  0
  8  9  1  0  0  0  0
  9 10  1  0  0  0  0
  9 25  1  0  0  0  0
  9 26  1  0  0  0  0
 10 11  1  0  0  0  0
 10 27  1  0  0  0  0
 10 28  1  0  0  0  0
 11 12  1  0  0  0  0
 12 13  1  0  0  0  0
 12 29  1  0  0  0  0
 12 30  1  0  0  0  0
 13 14  1  0  0  0  0
 13 31  1  0  0  0  0
 13 32  1  0  0  0  0
 14 15  1  0  0  0  0
 15 16  1  0  0  0  0
 15 33  1  0  0  0  0
 15 34  1  0  0  0  0
 16 35  1  0  0  0  0
 16 36  1  0  0  0  0
 16 37  1  0  0  0  0
 17 38  1  0  0  0  0
M  END
