2gqg_4.pdb
  MOE2019           3D

 30 29  0  0  0  0  0  0  0  0999 V2000
  -10.6540  -16.6080    0.0000 C   0  0  0  0  0  0  0  0  0  0  0  0
  -11.3720  -17.9240    0.0000 O   0  0  0  0  0  0  0  0  0  0  0  0
  -12.8720  -17.9610    0.0000 C   0  0  0  0  0  0  0  0  0  0  0  0
  -13.5900  -19.2780    0.0000 C   0  0  0  0  0  0  0  0  0  0  0  0
  -15.0900  -19.3140    0.0000 O   0  0  0  0  0  0  0  0  0  0  0  0
  -15.8710  -18.0330    0.0000 C   0  0  0  0  0  0  0  0  0  0  0  0
  -17.3700  -18.0700    0.0000 C   0  0  0  0  0  0  0  0  0  0  0  0
  -18.1520  -16.7890    0.0000 O   0  0  0  0  0  0  0  0  0  0  0  0
  -19.6510  -16.8250    0.0000 C   0  0  0  0  0  0  0  0  0  0  0  0
  -20.4320  -15.5450    0.0000 C   0  0  0  0  0  0  0  0  0  0  0  0
  -21.9320  -15.5810    0.0000 O   0  0  0  0  0  0  0  0  0  0  0  0
  -22.7130  -14.3010    0.0000 C   0  0  0  0  0  0  0  0  0  0  0  0
  -10.9820  -16.0710   -0.8900 H   0  0  0  0  0  0  0  0  0  0  0  0
   -9.5690  -16.7160    0.0000 H   0  0  0  0  0  0  0  0  0  0  0  0
  -10.9820  -16.0710    0.8900 H   0  0  0  0  0  0  0  0  0  0  0  0
  -13.2000  -17.4240    0.8900 H   0  0  0  0  0  0  0  0  0  0  0  0
  -13.2000  -17.4240   -0.8900 H   0  0  0  0  0  0  0  0  0  0  0  0
  -13.2620  -19.8150    0.8900 H   0  0  0  0  0  0  0  0  0  0  0  0
  -13.2620  -19.8150   -0.8900 H   0  0  0  0  0  0  0  0  0  0  0  0
  -15.5700  -17.4810    0.8900 H   0  0  0  0  0  0  0  0  0  0  0  0
  -15.5700  -17.4810   -0.8900 H   0  0  0  0  0  0  0  0  0  0  0  0
  -17.6710  -18.6230    0.8900 H   0  0  0  0  0  0  0  0  0  0  0  0
  -17.6710  -18.6230   -0.8900 H   0  0  0  0  0  0  0  0  0  0  0  0
  -19.9520  -17.3770   -0.8900 H   0  0  0  0  0  0  0  0  0  0  0  0
  -19.9520  -17.3770    0.8900 H   0  0  0  0  0  0  0  0  0  0  0  0
  -20.1310  -14.9930   -0.8900 H   0  0  0  0  0  0  0  0  0  0  0  0
  -20.1310  -14.9930    0.8900 H   0  0  0  0  0  0  0  0  0  0  0  0
  -22.4120  -13.7490    0.8900 H   0  0  0  0  0  0  0  0  0  0  0  0
  -22.4120  -13.7490   -0.8900 H   0  0  0  0  0  0  0  0  0  0  0  0
  -23.7910  -14.4610    0.0000 H   0  0  0  0  0  0  0  0  0  0  0  0
  1  2  1  0  0  0  0
  1 13  1  0  0  0  0
  1 14  1  0  0  0  0
  1 15  1  0  0  0  0
  2  3  1  0  0  0  0
  3  4  1  0  0  0  0
  3 16  1  0  0  0  0
  3 17  1  0  0  0  0
  4  5  1  0  0  0  0
  4 18  1  0  0  0  0
  4 19  1  0  0  0  0
  5  6  1  0  0  0  0
  6  7  1  0  0  0  0
  6 20  1  0  0  0  0
  6 21  1  0  0  0  0
  7  8  1  0  0  0  0
  7 22  1  0  0  0  0
  7 23  1  0  0  0  0
  8  9  1  0  0  0  0
  9 10  1  0  0  0  0
  9 24  1  0  0  0  0
  9 25  1  0  0  0  0
 10 11  1  0  0  0  0
 10 26  1  0  0  0  0
 10 27  1  0  0  0  0
 11 12  1  0  0  0  0
 12 28  1  0  0  0  0
 12 29  1  0  0  0  0
 12 30  1  0  0  0  0
M  END
