2gqg_21.pdb
  MOE2019           3D

 28 27  0  0  0  0  0  0  0  0999 V2000
   10.2940  -28.1900    0.0000 C   0  0  0  0  0  0  0  0  0  0  0  0
    9.5700  -26.8760    0.0000 C   0  0  0  0  0  0  0  0  0  0  0  0
    8.0700  -26.8470    0.0000 C   0  0  0  0  0  0  0  0  0  0  0  0
    7.3460  -25.5330    0.0000 C   0  0  0  0  0  0  0  0  0  0  0  0
    5.8460  -25.5030    0.0000 C   0  0  0  0  0  0  0  0  0  0  0  0
    5.1220  -24.1900    0.0000 C   0  0  0  0  0  0  0  0  0  0  0  0
    3.6220  -24.1600    0.0000 O   0  0  0  0  0  0  0  0  0  0  0  0
    2.8980  -22.8460    0.0000 C   0  0  0  0  0  0  0  0  0  0  0  0
    1.3990  -22.8170    0.0000 C   0  0  0  0  0  0  0  0  0  0  0  0
    0.6740  -21.5030    0.0000 O   0  0  0  0  0  0  0  0  0  0  0  0
   -0.2670  -21.6910    0.0000 H   0  0  0  0  0  0  0  0  0  0  0  0
    9.9690  -28.7290   -0.8900 H   0  0  0  0  0  0  0  0  0  0  0  0
    9.9690  -28.7290    0.8900 H   0  0  0  0  0  0  0  0  0  0  0  0
   11.3780  -28.0760    0.0000 H   0  0  0  0  0  0  0  0  0  0  0  0
    9.8950  -26.3370    0.8900 H   0  0  0  0  0  0  0  0  0  0  0  0
    9.8950  -26.3370   -0.8900 H   0  0  0  0  0  0  0  0  0  0  0  0
    7.7450  -27.3860   -0.8900 H   0  0  0  0  0  0  0  0  0  0  0  0
    7.7450  -27.3860    0.8900 H   0  0  0  0  0  0  0  0  0  0  0  0
    7.6710  -24.9940   -0.8900 H   0  0  0  0  0  0  0  0  0  0  0  0
    7.6710  -24.9940    0.8900 H   0  0  0  0  0  0  0  0  0  0  0  0
    5.5210  -26.0420    0.8900 H   0  0  0  0  0  0  0  0  0  0  0  0
    5.5210  -26.0420   -0.8900 H   0  0  0  0  0  0  0  0  0  0  0  0
    5.4470  -23.6510   -0.8900 H   0  0  0  0  0  0  0  0  0  0  0  0
    5.4470  -23.6510    0.8900 H   0  0  0  0  0  0  0  0  0  0  0  0
    3.2230  -22.3070    0.8900 H   0  0  0  0  0  0  0  0  0  0  0  0
    3.2230  -22.3070   -0.8900 H   0  0  0  0  0  0  0  0  0  0  0  0
    1.0740  -23.3560    0.8900 H   0  0  0  0  0  0  0  0  0  0  0  0
    1.0740  -23.3560   -0.8900 H   0  0  0  0  0  0  0  0  0  0  0  0
  1  2  1  0  0  0  0
  1 12  1  0  0  0  0
  1 13  1  0  0  0  0
  1 14  1  0  0  0  0
  2  3  1  0  0  0  0
  2 15  1  0  0  0  0
  2 16  1  0  0  0  0
  3  4  1  0  0  0  0
  3 17  1  0  0  0  0
  3 18  1  0  0  0  0
  4  5  1  0  0  0  0
  4 19  1  0  0  0  0
  4 20  1  0  0  0  0
  5  6  1  0  0  0  0
  5 21  1  0  0  0  0
  5 22  1  0  0  0  0
  6  7  1  0  0  0  0
  6 23  1  0  0  0  0
  6 24  1  0  0  0  0
  7  8  1  0  0  0  0
  8  9  1  0  0  0  0
  8 25  1  0  0  0  0
  8 26  1  0  0  0  0
  9 10  1  0  0  0  0
  9 27  1  0  0  0  0
  9 28  1  0  0  0  0
 10 11  1  0  0  0  0
M  END
