2hyy_1.pdb
  MOE2019           3D

 47 46  0  0  0  0  0  0  0  0999 V2000
   16.6280    7.8250    0.0000 C   0  0  0  0  0  0  0  0  0  0  0  0
   15.3290    8.5750    0.0000 C   0  0  0  0  0  0  0  0  0  0  0  0
   14.0300    7.8250    0.0000 C   0  0  0  0  0  0  0  0  0  0  0  0
   12.7310    8.5750    0.0000 C   0  0  0  0  0  0  0  0  0  0  0  0
   11.4320    7.8250    0.0000 O   0  0  0  0  0  0  0  0  0  0  0  0
   10.1330    8.5750    0.0000 C   0  0  0  0  0  0  0  0  0  0  0  0
    8.8340    7.8250    0.0000 C   0  0  0  0  0  0  0  0  0  0  0  0
    7.5350    8.5750    0.0000 O   0  0  0  0  0  0  0  0  0  0  0  0
    6.2360    7.8250    0.0000 C   0  0  0  0  0  0  0  0  0  0  0  0
    4.9370    8.5750    0.0000 C   0  0  0  0  0  0  0  0  0  0  0  0
    3.6380    7.8250    0.0000 O   0  0  0  0  0  0  0  0  0  0  0  0
    2.3390    8.5750    0.0000 C   0  0  0  0  0  0  0  0  0  0  0  0
    1.0400    7.8250    0.0000 C   0  0  0  0  0  0  0  0  0  0  0  0
   -0.2590    8.5750    0.0000 C   0  0  0  0  0  0  0  0  0  0  0  0
   -1.5580    7.8250    0.0000 C   0  0  0  0  0  0  0  0  0  0  0  0
   -2.8580    8.5750    0.0000 C   0  0  0  0  0  0  0  0  0  0  0  0
   -4.1570    7.8250    0.0000 C   0  0  0  0  0  0  0  0  0  0  0  0
   16.6280    7.1960   -0.8900 H   0  0  0  0  0  0  0  0  0  0  0  0
   16.6280    7.1960    0.8900 H   0  0  0  0  0  0  0  0  0  0  0  0
   17.4980    8.4820    0.0000 H   0  0  0  0  0  0  0  0  0  0  0  0
   15.3290    9.2040   -0.8900 H   0  0  0  0  0  0  0  0  0  0  0  0
   15.3290    9.2040    0.8900 H   0  0  0  0  0  0  0  0  0  0  0  0
   14.0300    7.1960    0.8900 H   0  0  0  0  0  0  0  0  0  0  0  0
   14.0300    7.1960   -0.8900 H   0  0  0  0  0  0  0  0  0  0  0  0
   12.7310    9.2040   -0.8900 H   0  0  0  0  0  0  0  0  0  0  0  0
   12.7310    9.2040    0.8900 H   0  0  0  0  0  0  0  0  0  0  0  0
   10.1330    9.2040    0.8900 H   0  0  0  0  0  0  0  0  0  0  0  0
   10.1330    9.2040   -0.8900 H   0  0  0  0  0  0  0  0  0  0  0  0
    8.8340    7.1960    0.8900 H   0  0  0  0  0  0  0  0  0  0  0  0
    8.8340    7.1960   -0.8900 H   0  0  0  0  0  0  0  0  0  0  0  0
    6.2360    7.1960   -0.8900 H   0  0  0  0  0  0  0  0  0  0  0  0
    6.2360    7.1960    0.8900 H   0  0  0  0  0  0  0  0  0  0  0  0
    4.9370    9.2040   -0.8900 H   0  0  0  0  0  0  0  0  0  0  0  0
    4.9370    9.2040    0.8900 H   0  0  0  0  0  0  0  0  0  0  0  0
    2.3390    9.2040    0.8900 H   0  0  0  0  0  0  0  0  0  0  0  0
    2.3390    9.2040   -0.8900 H   0  0  0  0  0  0  0  0  0  0  0  0
    1.0400    7.1960   -0.8900 H   0  0  0  0  0  0  0  0  0  0  0  0
    1.0400    7.1960    0.8900 H   0  0  0  0  0  0  0  0  0  0  0  0
   -0.2590    9.2040    0.8900 H   0  0  0  0  0  0  0  0  0  0  0  0
   -0.2590    9.2040   -0.8900 H   0  0  0  0  0  0  0  0  0  0  0  0
   -1.5580    7.1960    0.8900 H   0  0  0  0  0  0  0  0  0  0  0  0
   -1.5580    7.1960   -0.8900 H   0  0  0  0  0  0  0  0  0  0  0  0
   -2.8580    9.2040   -0.8900 H   0  0  0  0  0  0  0  0  0  0  0  0
   -2.8580    9.2040    0.8900 H   0  0  0  0  0  0  0  0  0  0  0  0
   -4.1570    7.1960    0.8900 H   0  0  0  0  0  0  0  0  0  0  0  0
   -4.1570    7.1960   -0.8900 H   0  0  0  0  0  0  0  0  0  0  0  0
   -5.0270    8.4820    0.0000 H   0  0  0  0  0  0  0  0  0  0  0  0
  1  2  1  0  0  0  0
  1 18  1  0  0  0  0
  1 19  1  0  0  0  0
  1 20  1  0  0  0  0
  2  3  1  0  0  0  0
  2 21  1  0  0  0  0
  2 22  1  0  0  0  0
  3  4  1  0  0  0  0
  3 23  1  0  0  0  0
  3 24  1  0  0  0  0
  4  5  1  0  0  0  0
  4 25  1  0  0  0  0
  4 26  1  0  0  0  0
  5  6  1  0  0  0  0
  6  7  1  0  0  0  0
  6 27  1  0  0  0  0
  6 28  1  0  0  0  0
  7  8  1  0  0  0  0
  7 29  1  0  0  0  0
  7 30  1  0  0  0  0
  8  9  1  0  0  0  0
  9 10  1  0  0  0  0
  9 31  1  0  0  0  0
  9 32  1  0  0  0  0
 10 11  1  0  0  0  0
 10 33  1  0  0  0  0
 10 34  1  0  0  0  0
 11 12  1  0  0  0  0
 12 13  1  0  0  0  0
 12 35  1  0  0  0  0
 12 36  1  0  0  0  0
 13 14  1  0  0  0  0
 13 37  1  0  0  0  0
 13 38  1  0  0  0  0
 14 15  1  0  0  0  0
 14 39  1  0  0  0  0
 14 40  1  0  0  0  0
 15 16  1  0  0  0  0
 15 41  1  0  0  0  0
 15 42  1  0  0  0  0
 16 17  1  0  0  0  0
 16 43  1  0  0  0  0
 16 44  1  0  0  0  0
 17 45  1  0  0  0  0
 17 46  1  0  0  0  0
 17 47  1  0  0  0  0
M  END
