2jf9_1.pdb
  MOE2019           3D

 17 16  0  0  0  0  0  0  0  0999 V2000
    1.9290   -8.0950    0.0000 O   0  0  0  0  0  0  0  0  0  0  0  0
    1.2200   -7.4480    0.0000 H   0  0  0  0  0  0  0  0  0  0  0  0
    3.2280   -7.3450    0.0000 C   0  0  0  0  0  0  0  0  0  0  0  0
    4.5270   -8.0950    0.0000 C   0  0  0  0  0  0  0  0  0  0  0  0
    5.8260   -7.3450    0.0000 O   0  0  0  0  0  0  0  0  0  0  0  0
    7.1250   -8.0950    0.0000 C   0  0  0  0  0  0  0  0  0  0  0  0
    8.4240   -7.3450    0.0000 C   0  0  0  0  0  0  0  0  0  0  0  0
    9.7230   -8.0950    0.0000 O   0  0  0  0  0  0  0  0  0  0  0  0
   10.4320   -7.4480    0.0000 H   0  0  0  0  0  0  0  0  0  0  0  0
    3.2280   -6.7160   -0.8900 H   0  0  0  0  0  0  0  0  0  0  0  0
    3.2280   -6.7160    0.8900 H   0  0  0  0  0  0  0  0  0  0  0  0
    4.5270   -8.7240   -0.8900 H   0  0  0  0  0  0  0  0  0  0  0  0
    4.5270   -8.7240    0.8900 H   0  0  0  0  0  0  0  0  0  0  0  0
    7.1250   -8.7240    0.8900 H   0  0  0  0  0  0  0  0  0  0  0  0
    7.1250   -8.7240   -0.8900 H   0  0  0  0  0  0  0  0  0  0  0  0
    8.4240   -6.7160    0.8900 H   0  0  0  0  0  0  0  0  0  0  0  0
    8.4240   -6.7160   -0.8900 H   0  0  0  0  0  0  0  0  0  0  0  0
  1  2  1  0  0  0  0
  1  3  1  0  0  0  0
  3  4  1  0  0  0  0
  3 10  1  0  0  0  0
  3 11  1  0  0  0  0
  4  5  1  0  0  0  0
  4 12  1  0  0  0  0
  4 13  1  0  0  0  0
  5  6  1  0  0  0  0
  6  7  1  0  0  0  0
  6 14  1  0  0  0  0
  6 15  1  0  0  0  0
  7  8  1  0  0  0  0
  7 16  1  0  0  0  0
  7 17  1  0  0  0  0
  8  9  1  0  0  0  0
M  END
