2jfa_1.pdb
  MOE2019           3D

 17 16  0  0  0  0  0  0  0  0999 V2000
    6.1700   -7.7260    0.0000 O   0  0  0  0  0  0  0  0  0  0  0  0
    5.8730   -8.6390    0.0000 H   0  0  0  0  0  0  0  0  0  0  0  0
    7.6700   -7.7370    0.0000 C   0  0  0  0  0  0  0  0  0  0  0  0
    8.4300   -6.4440    0.0000 C   0  0  0  0  0  0  0  0  0  0  0  0
    9.9300   -6.4560    0.0000 O   0  0  0  0  0  0  0  0  0  0  0  0
   10.6900   -5.1620    0.0000 C   0  0  0  0  0  0  0  0  0  0  0  0
   12.1890   -5.1740    0.0000 C   0  0  0  0  0  0  0  0  0  0  0  0
   12.9490   -3.8810    0.0000 O   0  0  0  0  0  0  0  0  0  0  0  0
   12.6840   -3.3890   -0.7810 H   0  0  0  0  0  0  0  0  0  0  0  0
    7.9810   -8.2840    0.8900 H   0  0  0  0  0  0  0  0  0  0  0  0
    7.9810   -8.2840   -0.8900 H   0  0  0  0  0  0  0  0  0  0  0  0
    8.1200   -5.8970    0.8900 H   0  0  0  0  0  0  0  0  0  0  0  0
    8.1200   -5.8970   -0.8900 H   0  0  0  0  0  0  0  0  0  0  0  0
   10.3800   -4.6150   -0.8900 H   0  0  0  0  0  0  0  0  0  0  0  0
   10.3800   -4.6150    0.8900 H   0  0  0  0  0  0  0  0  0  0  0  0
   12.4990   -5.7210   -0.8900 H   0  0  0  0  0  0  0  0  0  0  0  0
   12.4990   -5.7210    0.8900 H   0  0  0  0  0  0  0  0  0  0  0  0
  1  2  1  0  0  0  0
  1  3  1  0  0  0  0
  3  4  1  0  0  0  0
  3 10  1  0  0  0  0
  3 11  1  0  0  0  0
  4  5  1  0  0  0  0
  4 12  1  0  0  0  0
  4 13  1  0  0  0  0
  5  6  1  0  0  0  0
  6  7  1  0  0  0  0
  6 14  1  0  0  0  0
  6 15  1  0  0  0  0
  7  8  1  0  0  0  0
  7 16  1  0  0  0  0
  7 17  1  0  0  0  0
  8  9  1  0  0  0  0
M  END
