2vti_16.pdb
  MOE2019           3D

 23 22  0  0  0  0  0  0  0  0999 V2000
   -8.0820   10.9270    0.0000 O   0  0  0  0  0  0  0  0  0  0  0  0
   -9.3810   10.1770    0.0000 C   0  0  0  0  0  0  0  0  0  0  0  0
   -9.3810    8.6770    0.0000 N   0  0  0  0  0  0  0  0  0  0  0  0
   -8.0820    7.9270    0.0000 C   0  0  0  0  0  0  0  0  0  0  0  0
   -8.0820    6.4270    0.0000 C   0  0  0  0  0  0  0  0  0  0  0  0
   -6.7830    5.6770    0.0000 N   0  0  0  0  0  0  0  0  0  0  0  0
   -6.7830    4.1770    0.0000 C   0  0  0  0  0  0  0  0  0  0  0  0
   -8.0820    3.4270    0.0000 O   0  0  0  0  0  0  0  0  0  0  0  0
   -5.4840    3.4270    0.0000 C   0  0  0  0  0  0  0  0  0  0  0  0
  -10.6800   10.9270    0.0000 C   0  0  0  0  0  0  0  0  0  0  0  0
  -11.9790   10.1770    0.0000 O   0  0  0  0  0  0  0  0  0  0  0  0
  -11.9920    9.6180   -0.7800 H   0  0  0  0  0  0  0  0  0  0  0  0
  -10.2560    8.1720    0.0000 H   0  0  0  0  0  0  0  0  0  0  0  0
   -7.5370    8.2420    0.8900 H   0  0  0  0  0  0  0  0  0  0  0  0
   -7.5370    8.2420   -0.8900 H   0  0  0  0  0  0  0  0  0  0  0  0
   -8.6270    6.1120   -0.8900 H   0  0  0  0  0  0  0  0  0  0  0  0
   -8.6270    6.1120    0.8900 H   0  0  0  0  0  0  0  0  0  0  0  0
   -5.9080    6.1820    0.0000 H   0  0  0  0  0  0  0  0  0  0  0  0
   -5.4840    2.7980   -0.8900 H   0  0  0  0  0  0  0  0  0  0  0  0
   -4.6140    4.0840    0.0000 H   0  0  0  0  0  0  0  0  0  0  0  0
   -5.4840    2.7980    0.8900 H   0  0  0  0  0  0  0  0  0  0  0  0
  -10.6800   11.5560   -0.8900 H   0  0  0  0  0  0  0  0  0  0  0  0
  -10.6800   11.5560    0.8900 H   0  0  0  0  0  0  0  0  0  0  0  0
  1  2  2  0  0  0  0
  2  3  1  0  0  0  0
  2 10  1  0  0  0  0
  3  4  1  0  0  0  0
  3 13  1  0  0  0  0
  4  5  1  0  0  0  0
  4 14  1  0  0  0  0
  4 15  1  0  0  0  0
  5  6  1  0  0  0  0
  5 16  1  0  0  0  0
  5 17  1  0  0  0  0
  6  7  1  0  0  0  0
  6 18  1  0  0  0  0
  7  8  2  0  0  0  0
  7  9  1  0  0  0  0
  9 19  1  0  0  0  0
  9 20  1  0  0  0  0
  9 21  1  0  0  0  0
 10 11  1  0  0  0  0
 10 22  1  0  0  0  0
 10 23  1  0  0  0  0
 11 12  1  0  0  0  0
M  END
