2vti_7.pdb
  MOE2019           3D

 29 28  0  0  0  0  0  0  0  0999 V2000
   12.5150  -10.0680    0.0000 C   0  0  0  0  0  0  0  0  0  0  0  0
   13.2650  -11.3670    0.0000 C   0  0  0  0  0  0  0  0  0  0  0  0
   12.5150  -12.6660    0.0000 O   0  0  0  0  0  0  0  0  0  0  0  0
   14.7650  -11.3670    0.0000 N   0  0  0  0  0  0  0  0  0  0  0  0
   15.5150  -10.0680    0.0000 C   0  0  0  0  0  0  0  0  0  0  0  0
   17.0150  -10.0680    0.0000 C   0  0  0  0  0  0  0  0  0  0  0  0
   17.7650   -8.7690    0.0000 C   0  0  0  0  0  0  0  0  0  0  0  0
   19.2650   -8.7690    0.0000 C   0  0  0  0  0  0  0  0  0  0  0  0
   20.0150   -7.4700    0.0000 N   0  0  0  0  0  0  0  0  0  0  0  0
   21.5150   -7.4700    0.0000 C   0  0  0  0  0  0  0  0  0  0  0  0
   22.2650   -8.7690    0.0000 O   0  0  0  0  0  0  0  0  0  0  0  0
   22.2650   -6.1700    0.0000 C   0  0  0  0  0  0  0  0  0  0  0  0
   23.7650   -6.1700    0.0000 O   0  0  0  0  0  0  0  0  0  0  0  0
   24.0550   -6.6480    0.7800 H   0  0  0  0  0  0  0  0  0  0  0  0
   12.8300   -9.5230    0.8900 H   0  0  0  0  0  0  0  0  0  0  0  0
   11.4330  -10.2020    0.0000 H   0  0  0  0  0  0  0  0  0  0  0  0
   12.8300   -9.5230   -0.8900 H   0  0  0  0  0  0  0  0  0  0  0  0
   15.2700  -12.2420    0.0000 H   0  0  0  0  0  0  0  0  0  0  0  0
   15.2000   -9.5230    0.8900 H   0  0  0  0  0  0  0  0  0  0  0  0
   15.2000   -9.5230   -0.8900 H   0  0  0  0  0  0  0  0  0  0  0  0
   17.3300  -10.6130   -0.8900 H   0  0  0  0  0  0  0  0  0  0  0  0
   17.3300  -10.6130    0.8900 H   0  0  0  0  0  0  0  0  0  0  0  0
   17.4500   -8.2240    0.8900 H   0  0  0  0  0  0  0  0  0  0  0  0
   17.4500   -8.2240   -0.8900 H   0  0  0  0  0  0  0  0  0  0  0  0
   19.5800   -9.3140   -0.8900 H   0  0  0  0  0  0  0  0  0  0  0  0
   19.5800   -9.3140    0.8900 H   0  0  0  0  0  0  0  0  0  0  0  0
   19.5100   -6.5950    0.0000 H   0  0  0  0  0  0  0  0  0  0  0  0
   21.9500   -5.6250    0.8900 H   0  0  0  0  0  0  0  0  0  0  0  0
   21.9500   -5.6250   -0.8900 H   0  0  0  0  0  0  0  0  0  0  0  0
  1  2  1  0  0  0  0
  1 15  1  0  0  0  0
  1 16  1  0  0  0  0
  1 17  1  0  0  0  0
  2  3  2  0  0  0  0
  2  4  1  0  0  0  0
  4  5  1  0  0  0  0
  4 18  1  0  0  0  0
  5  6  1  0  0  0  0
  5 19  1  0  0  0  0
  5 20  1  0  0  0  0
  6  7  1  0  0  0  0
  6 21  1  0  0  0  0
  6 22  1  0  0  0  0
  7  8  1  0  0  0  0
  7 23  1  0  0  0  0
  7 24  1  0  0  0  0
  8  9  1  0  0  0  0
  8 25  1  0  0  0  0
  8 26  1  0  0  0  0
  9 10  1  0  0  0  0
  9 27  1  0  0  0  0
 10 11  2  0  0  0  0
 10 12  1  0  0  0  0
 12 13  1  0  0  0  0
 12 28  1  0  0  0  0
 12 29  1  0  0  0  0
 13 14  1  0  0  0  0
M  END
