2wxl_2.pdb
  MOE2019           3D

 22 21  0  0  0  0  0  0  0  0999 V2000
   14.8240   -4.6420    0.0000 C   0  0  0  0  0  0  0  0  0  0  0  0
   16.1230   -3.8920    0.0000 C   0  0  0  0  0  0  0  0  0  0  0  0
   16.1230   -2.3920    0.0000 O   0  0  0  0  0  0  0  0  0  0  0  0
   17.4220   -4.6420    0.0000 N   0  0  0  0  0  0  0  0  0  0  0  0
   18.7210   -3.8920    0.0000 C   0  0  0  0  0  0  0  0  0  0  0  0
   20.0200   -4.6420    0.0000 C   0  0  0  0  0  0  0  0  0  0  0  0
   20.0200   -5.2710   -0.8900 H   0  0  0  0  0  0  0  0  0  0  0  0
   20.0200   -5.2710    0.8900 H   0  0  0  0  0  0  0  0  0  0  0  0
   14.8240   -5.2710   -0.8900 H   0  0  0  0  0  0  0  0  0  0  0  0
   13.9540   -3.9850    0.0000 H   0  0  0  0  0  0  0  0  0  0  0  0
   14.8240   -5.2710    0.8900 H   0  0  0  0  0  0  0  0  0  0  0  0
   17.4220   -5.6520    0.0000 H   0  0  0  0  0  0  0  0  0  0  0  0
   18.7210   -3.2630    0.8900 H   0  0  0  0  0  0  0  0  0  0  0  0
   18.7210   -3.2630   -0.8900 H   0  0  0  0  0  0  0  0  0  0  0  0
   21.3190   -3.8920    0.0000 C   0  0  0  0  0  0  0  0  0  0  0  0
   21.3190   -3.2630   -0.8900 H   0  0  0  0  0  0  0  0  0  0  0  0
   21.3190   -3.2630    0.8900 H   0  0  0  0  0  0  0  0  0  0  0  0
   22.6180   -4.6420    0.0000 C   0  0  0  0  0  0  0  0  0  0  0  0
   22.6180   -6.1420    0.0000 O   0  0  0  0  0  0  0  0  0  0  0  0
   23.9170   -3.8920    0.0000 N   0  0  0  0  0  0  0  0  0  0  0  0
   23.9170   -2.8820    0.0000 H   0  0  0  0  0  0  0  0  0  0  0  0
   24.7920   -4.3970    0.0000 H   0  0  0  0  0  0  0  0  0  0  0  0
  1  2  1  0  0  0  0
  1  9  1  0  0  0  0
  1 10  1  0  0  0  0
  1 11  1  0  0  0  0
  2  3  2  0  0  0  0
  2  4  1  0  0  0  0
  4  5  1  0  0  0  0
  4 12  1  0  0  0  0
  5  6  1  0  0  0  0
  5 13  1  0  0  0  0
  5 14  1  0  0  0  0
  6  7  1  0  0  0  0
  6  8  1  0  0  0  0
  6 15  1  0  0  0  0
 15 16  1  0  0  0  0
 15 17  1  0  0  0  0
 15 18  1  0  0  0  0
 18 19  2  0  0  0  0
 18 20  1  0  0  0  0
 20 21  1  0  0  0  0
 20 22  1  0  0  0  0
M  END
