2wxl_1.pdb
  MOE2019           3D

 21 20  0  0  0  0  0  0  0  0999 V2000
   13.2840   -0.8430    0.0000 C   0  0  0  0  0  0  0  0  0  0  0  0
   14.0340    0.4560    0.0000 C   0  0  0  0  0  0  0  0  0  0  0  0
   15.5340    0.4560    0.0000 C   0  0  0  0  0  0  0  0  0  0  0  0
   16.2840    1.7560    0.0000 C   0  0  0  0  0  0  0  0  0  0  0  0
   15.9690    2.3010    0.8900 H   0  0  0  0  0  0  0  0  0  0  0  0
   15.9690    2.3010   -0.8900 H   0  0  0  0  0  0  0  0  0  0  0  0
   13.5990   -1.3880   -0.8900 H   0  0  0  0  0  0  0  0  0  0  0  0
   13.5990   -1.3880    0.8900 H   0  0  0  0  0  0  0  0  0  0  0  0
   12.2020   -0.7090    0.0000 H   0  0  0  0  0  0  0  0  0  0  0  0
   13.7190    1.0010    0.8900 H   0  0  0  0  0  0  0  0  0  0  0  0
   13.7190    1.0010   -0.8900 H   0  0  0  0  0  0  0  0  0  0  0  0
   15.8490   -0.0890   -0.8900 H   0  0  0  0  0  0  0  0  0  0  0  0
   15.8490   -0.0890    0.8900 H   0  0  0  0  0  0  0  0  0  0  0  0
   17.7840    1.7560    0.0000 C   0  0  0  0  0  0  0  0  0  0  0  0
   18.0990    1.2110    0.8900 H   0  0  0  0  0  0  0  0  0  0  0  0
   18.0990    1.2110   -0.8900 H   0  0  0  0  0  0  0  0  0  0  0  0
   18.5340    3.0550    0.0000 C   0  0  0  0  0  0  0  0  0  0  0  0
   17.7840    4.3540    0.0000 O   0  0  0  0  0  0  0  0  0  0  0  0
   20.0340    3.0550    0.0000 N   0  0  0  0  0  0  0  0  0  0  0  0
   20.5390    3.9300    0.0000 H   0  0  0  0  0  0  0  0  0  0  0  0
   20.5390    2.1800    0.0000 H   0  0  0  0  0  0  0  0  0  0  0  0
  1  2  1  0  0  0  0
  1  7  1  0  0  0  0
  1  8  1  0  0  0  0
  1  9  1  0  0  0  0
  2  3  1  0  0  0  0
  2 10  1  0  0  0  0
  2 11  1  0  0  0  0
  3  4  1  0  0  0  0
  3 12  1  0  0  0  0
  3 13  1  0  0  0  0
  4  5  1  0  0  0  0
  4  6  1  0  0  0  0
  4 14  1  0  0  0  0
 14 15  1  0  0  0  0
 14 16  1  0  0  0  0
 14 17  1  0  0  0  0
 17 18  2  0  0  0  0
 17 19  1  0  0  0  0
 19 20  1  0  0  0  0
 19 21  1  0  0  0  0
M  END
