3cbs_1.pdb
  MOE2019           3D

 27 26  0  0  0  0  0  0  0  0999 V2000
    8.1570  -10.9230    0.0000 C   0  0  0  0  0  0  0  0  0  0  0  0
    6.8580  -10.1730    0.0000 O   0  0  0  0  0  0  0  0  0  0  0  0
    5.5590  -10.9230    0.0000 C   0  0  0  0  0  0  0  0  0  0  0  0
    4.2600  -10.1730    0.0000 C   0  0  0  0  0  0  0  0  0  0  0  0
    2.9610  -10.9230    0.0000 O   0  0  0  0  0  0  0  0  0  0  0  0
    1.6620  -10.1730    0.0000 C   0  0  0  0  0  0  0  0  0  0  0  0
    0.3630  -10.9230    0.0000 C   0  0  0  0  0  0  0  0  0  0  0  0
   -0.9360  -10.1730    0.0000 N   0  0  0  0  0  0  0  0  0  0  0  0
   -2.2350  -10.9230    0.0000 C   0  0  0  0  0  0  0  0  0  0  0  0
   -2.2350  -12.4230    0.0000 O   0  0  0  0  0  0  0  0  0  0  0  0
   -3.5340  -10.1730    0.0000 C   0  0  0  0  0  0  0  0  0  0  0  0
   -4.8330  -10.9230    0.0000 O   0  0  0  0  0  0  0  0  0  0  0  0
   -5.5420  -10.2760    0.0000 H   0  0  0  0  0  0  0  0  0  0  0  0
    8.1570  -11.5520    0.8900 H   0  0  0  0  0  0  0  0  0  0  0  0
    8.1570  -11.5520   -0.8900 H   0  0  0  0  0  0  0  0  0  0  0  0
    9.0270  -10.2660    0.0000 H   0  0  0  0  0  0  0  0  0  0  0  0
    5.5590  -11.5520   -0.8900 H   0  0  0  0  0  0  0  0  0  0  0  0
    5.5590  -11.5520    0.8900 H   0  0  0  0  0  0  0  0  0  0  0  0
    4.2600   -9.5440   -0.8900 H   0  0  0  0  0  0  0  0  0  0  0  0
    4.2600   -9.5440    0.8900 H   0  0  0  0  0  0  0  0  0  0  0  0
    1.6620   -9.5440    0.8900 H   0  0  0  0  0  0  0  0  0  0  0  0
    1.6620   -9.5440   -0.8900 H   0  0  0  0  0  0  0  0  0  0  0  0
    0.3630  -11.5520    0.8900 H   0  0  0  0  0  0  0  0  0  0  0  0
    0.3630  -11.5520   -0.8900 H   0  0  0  0  0  0  0  0  0  0  0  0
   -0.9360   -9.1630    0.0000 H   0  0  0  0  0  0  0  0  0  0  0  0
   -3.5340   -9.5440   -0.8900 H   0  0  0  0  0  0  0  0  0  0  0  0
   -3.5340   -9.5440    0.8900 H   0  0  0  0  0  0  0  0  0  0  0  0
  1  2  1  0  0  0  0
  1 14  1  0  0  0  0
  1 15  1  0  0  0  0
  1 16  1  0  0  0  0
  2  3  1  0  0  0  0
  3  4  1  0  0  0  0
  3 17  1  0  0  0  0
  3 18  1  0  0  0  0
  4  5  1  0  0  0  0
  4 19  1  0  0  0  0
  4 20  1  0  0  0  0
  5  6  1  0  0  0  0
  6  7  1  0  0  0  0
  6 21  1  0  0  0  0
  6 22  1  0  0  0  0
  7  8  1  0  0  0  0
  7 23  1  0  0  0  0
  7 24  1  0  0  0  0
  8  9  1  0  0  0  0
  8 25  1  0  0  0  0
  9 10  2  0  0  0  0
  9 11  1  0  0  0  0
 11 12  1  0  0  0  0
 11 26  1  0  0  0  0
 11 27  1  0  0  0  0
 12 13  1  0  0  0  0
M  END
