3ert_1.pdb
  MOE2019           3D

 15 14  0  0  0  0  0  0  0  0999 V2000
    4.6890    8.9340    0.0000 C   0  0  0  0  0  0  0  0  0  0  0  0
    3.3900    9.6840    0.0000 C   0  0  0  0  0  0  0  0  0  0  0  0
    2.0910    8.9340    0.0000 C   0  0  0  0  0  0  0  0  0  0  0  0
    2.0910    7.4340    0.0000 O   0  0  0  0  0  0  0  0  0  0  0  0
    0.7920    9.6840    0.0000 N   0  0  0  0  0  0  0  0  0  0  0  0
   -0.5070    8.9340    0.0000 C   0  0  0  0  0  0  0  0  0  0  0  0
    4.6890    8.3050   -0.8900 H   0  0  0  0  0  0  0  0  0  0  0  0
    4.6890    8.3050    0.8900 H   0  0  0  0  0  0  0  0  0  0  0  0
    5.5590    9.5910    0.0000 H   0  0  0  0  0  0  0  0  0  0  0  0
    3.3900   10.3130   -0.8900 H   0  0  0  0  0  0  0  0  0  0  0  0
    3.3900   10.3130    0.8900 H   0  0  0  0  0  0  0  0  0  0  0  0
    0.7920   10.6940    0.0000 H   0  0  0  0  0  0  0  0  0  0  0  0
   -0.5070    8.3050   -0.8900 H   0  0  0  0  0  0  0  0  0  0  0  0
   -0.5070    8.3050    0.8900 H   0  0  0  0  0  0  0  0  0  0  0  0
   -1.3770    9.5910    0.0000 H   0  0  0  0  0  0  0  0  0  0  0  0
  1  2  1  0  0  0  0
  1  7  1  0  0  0  0
  1  8  1  0  0  0  0
  1  9  1  0  0  0  0
  2  3  1  0  0  0  0
  2 10  1  0  0  0  0
  2 11  1  0  0  0  0
  3  4  2  0  0  0  0
  3  5  1  0  0  0  0
  5  6  1  0  0  0  0
  5 12  1  0  0  0  0
  6 13  1  0  0  0  0
  6 14  1  0  0  0  0
  6 15  1  0  0  0  0
M  END
