3hll_9.pdb
  MOE2019           3D

 53 53  0  0  0  0  0  0  0  0999 V2000
    9.8300   18.9730    0.0000 C   0  0  0  0  0  0  0  0  0  0  0  0
    9.0080   17.7180    0.0000 C   0  0  0  0  0  0  0  0  0  0  0  0
    7.5100   17.8020    0.0000 C   0  0  0  0  0  0  0  0  0  0  0  0
    6.6890   16.5470    0.0000 C   0  0  0  0  0  0  0  0  0  0  0  0
    5.1910   16.6310    0.0000 C   0  0  0  0  0  0  0  0  0  0  0  0
    4.3790   17.8920    0.0000 N   0  0  0  0  0  0  0  0  0  0  0  0
    2.9280   17.5090    0.0000 N   0  0  0  0  0  0  0  0  0  0  0  0
    2.8440   16.0120    0.0000 N   0  0  0  0  0  0  0  0  0  0  0  0
    1.5830   15.1990    0.0000 C   0  0  0  0  0  0  0  0  0  0  0  0
    0.2490   15.8850    0.0000 C   0  0  0  0  0  0  0  0  0  0  0  0
   -1.0120   15.0730    0.0000 C   0  0  0  0  0  0  0  0  0  0  0  0
   -2.3460   15.7590    0.0000 C   0  0  0  0  0  0  0  0  0  0  0  0
   -2.4190   17.2570    0.0000 O   0  0  0  0  0  0  0  0  0  0  0  0
   -3.6070   14.9470    0.0000 N   0  0  0  0  0  0  0  0  0  0  0  0
   -4.9410   15.6330    0.0000 C   0  0  0  0  0  0  0  0  0  0  0  0
   -6.2020   14.8200    0.0000 C   0  0  0  0  0  0  0  0  0  0  0  0
   -7.5360   15.5060    0.0000 O   0  0  0  0  0  0  0  0  0  0  0  0
   -8.7970   14.6940    0.0000 C   0  0  0  0  0  0  0  0  0  0  0  0
  -10.1310   15.3800    0.0000 C   0  0  0  0  0  0  0  0  0  0  0  0
  -11.3920   14.5680    0.0000 O   0  0  0  0  0  0  0  0  0  0  0  0
  -12.7260   15.2540    0.0000 C   0  0  0  0  0  0  0  0  0  0  0  0
  -13.9870   14.4420    0.0000 C   0  0  0  0  0  0  0  0  0  0  0  0
    4.2430   15.4690    0.0000 C   0  0  0  0  0  0  0  0  0  0  0  0
    9.5460   19.5350   -0.8900 H   0  0  0  0  0  0  0  0  0  0  0  0
   10.9020   18.7780    0.0000 H   0  0  0  0  0  0  0  0  0  0  0  0
    9.5460   19.5350    0.8900 H   0  0  0  0  0  0  0  0  0  0  0  0
    9.2920   17.1560    0.8900 H   0  0  0  0  0  0  0  0  0  0  0  0
    9.2920   17.1560   -0.8900 H   0  0  0  0  0  0  0  0  0  0  0  0
    7.2260   18.3640   -0.8900 H   0  0  0  0  0  0  0  0  0  0  0  0
    7.2260   18.3640    0.8900 H   0  0  0  0  0  0  0  0  0  0  0  0
    6.9730   15.9850    0.8900 H   0  0  0  0  0  0  0  0  0  0  0  0
    6.9730   15.9850   -0.8900 H   0  0  0  0  0  0  0  0  0  0  0  0
    1.6140   14.5700    0.8900 H   0  0  0  0  0  0  0  0  0  0  0  0
    1.6140   14.5700   -0.8900 H   0  0  0  0  0  0  0  0  0  0  0  0
    0.2180   16.5140   -0.8900 H   0  0  0  0  0  0  0  0  0  0  0  0
    0.2180   16.5140    0.8900 H   0  0  0  0  0  0  0  0  0  0  0  0
   -0.9810   14.4440    0.8900 H   0  0  0  0  0  0  0  0  0  0  0  0
   -0.9810   14.4440   -0.8900 H   0  0  0  0  0  0  0  0  0  0  0  0
   -3.5580   13.9380    0.0000 H   0  0  0  0  0  0  0  0  0  0  0  0
   -4.9720   16.2620   -0.8900 H   0  0  0  0  0  0  0  0  0  0  0  0
   -4.9720   16.2620    0.8900 H   0  0  0  0  0  0  0  0  0  0  0  0
   -6.1710   14.1910    0.8900 H   0  0  0  0  0  0  0  0  0  0  0  0
   -6.1710   14.1910   -0.8900 H   0  0  0  0  0  0  0  0  0  0  0  0
   -8.7660   14.0650    0.8900 H   0  0  0  0  0  0  0  0  0  0  0  0
   -8.7660   14.0650   -0.8900 H   0  0  0  0  0  0  0  0  0  0  0  0
  -10.1620   16.0090   -0.8900 H   0  0  0  0  0  0  0  0  0  0  0  0
  -10.1620   16.0090    0.8900 H   0  0  0  0  0  0  0  0  0  0  0  0
  -12.7570   15.8830   -0.8900 H   0  0  0  0  0  0  0  0  0  0  0  0
  -12.7570   15.8830    0.8900 H   0  0  0  0  0  0  0  0  0  0  0  0
  -13.9560   13.8130    0.8900 H   0  0  0  0  0  0  0  0  0  0  0  0
  -14.8870   15.0560    0.0000 H   0  0  0  0  0  0  0  0  0  0  0  0
  -13.9560   13.8130   -0.8900 H   0  0  0  0  0  0  0  0  0  0  0  0
    4.5190   14.4250    0.0000 H   0  0  0  0  0  0  0  0  0  0  0  0
  1  2  1  0  0  0  0
  1 24  1  0  0  0  0
  1 25  1  0  0  0  0
  1 26  1  0  0  0  0
  2  3  1  0  0  0  0
  2 27  1  0  0  0  0
  2 28  1  0  0  0  0
  3  4  1  0  0  0  0
  3 29  1  0  0  0  0
  3 30  1  0  0  0  0
  4  5  1  0  0  0  0
  4 31  1  0  0  0  0
  4 32  1  0  0  0  0
  5  6  1  0  0  0  0
  5 23  2  0  0  0  0
  6  7  2  0  0  0  0
  7  8  1  0  0  0  0
  8  9  1  0  0  0  0
  8 23  1  0  0  0  0
  9 10  1  0  0  0  0
  9 33  1  0  0  0  0
  9 34  1  0  0  0  0
 10 11  1  0  0  0  0
 10 35  1  0  0  0  0
 10 36  1  0  0  0  0
 11 12  1  0  0  0  0
 11 37  1  0  0  0  0
 11 38  1  0  0  0  0
 12 13  2  0  0  0  0
 12 14  1  0  0  0  0
 14 15  1  0  0  0  0
 14 39  1  0  0  0  0
 15 16  1  0  0  0  0
 15 40  1  0  0  0  0
 15 41  1  0  0  0  0
 16 17  1  0  0  0  0
 16 42  1  0  0  0  0
 16 43  1  0  0  0  0
 17 18  1  0  0  0  0
 18 19  1  0  0  0  0
 18 44  1  0  0  0  0
 18 45  1  0  0  0  0
 19 20  1  0  0  0  0
 19 46  1  0  0  0  0
 19 47  1  0  0  0  0
 20 21  1  0  0  0  0
 21 22  1  0  0  0  0
 21 48  1  0  0  0  0
 21 49  1  0  0  0  0
 22 50  1  0  0  0  0
 22 51  1  0  0  0  0
 22 52  1  0  0  0  0
 23 53  1  0  0  0  0
M  END
