3hll_18.pdb
  MOE2019           3D

 39 39  0  0  0  0  0  0  0  0999 V2000
   -4.2660  -16.7580    0.0000 C   0  0  0  0  0  0  0  0  0  0  0  0
   -3.0020  -17.5660    0.0000 C   0  0  0  0  0  0  0  0  0  0  0  0
   -1.6710  -16.8740    0.0000 C   0  0  0  0  0  0  0  0  0  0  0  0
   -0.3290  -17.5450    0.0000 N   0  0  0  0  0  0  0  0  0  0  0  0
    0.7230  -16.4770    0.0000 N   0  0  0  0  0  0  0  0  0  0  0  0
    0.0320  -15.1450    0.0000 N   0  0  0  0  0  0  0  0  0  0  0  0
    0.7030  -13.8040    0.0000 C   0  0  0  0  0  0  0  0  0  0  0  0
    2.2010  -13.7140    0.0000 C   0  0  0  0  0  0  0  0  0  0  0  0
    2.8710  -12.3720    0.0000 C   0  0  0  0  0  0  0  0  0  0  0  0
    4.3690  -12.2830    0.0000 C   0  0  0  0  0  0  0  0  0  0  0  0
    5.1950  -13.5340    0.0000 O   0  0  0  0  0  0  0  0  0  0  0  0
    5.0400  -10.9410    0.0000 N   0  0  0  0  0  0  0  0  0  0  0  0
    6.5370  -10.8510    0.0000 C   0  0  0  0  0  0  0  0  0  0  0  0
    7.2080   -9.5100    0.0000 C   0  0  0  0  0  0  0  0  0  0  0  0
    8.7050   -9.4200    0.0000 C   0  0  0  0  0  0  0  0  0  0  0  0
    9.3760   -8.0780    0.0000 C   0  0  0  0  0  0  0  0  0  0  0  0
   -1.4470  -15.3910    0.0000 C   0  0  0  0  0  0  0  0  0  0  0  0
   -4.2380  -16.1290    0.8900 H   0  0  0  0  0  0  0  0  0  0  0  0
   -5.1640  -17.3760    0.0000 H   0  0  0  0  0  0  0  0  0  0  0  0
   -4.2380  -16.1290   -0.8900 H   0  0  0  0  0  0  0  0  0  0  0  0
   -3.0300  -18.1950   -0.8900 H   0  0  0  0  0  0  0  0  0  0  0  0
   -3.0300  -18.1950    0.8900 H   0  0  0  0  0  0  0  0  0  0  0  0
    0.3560  -13.2790    0.8900 H   0  0  0  0  0  0  0  0  0  0  0  0
    0.3560  -13.2790   -0.8900 H   0  0  0  0  0  0  0  0  0  0  0  0
    2.5480  -14.2390   -0.8900 H   0  0  0  0  0  0  0  0  0  0  0  0
    2.5480  -14.2390    0.8900 H   0  0  0  0  0  0  0  0  0  0  0  0
    2.5240  -11.8470    0.8900 H   0  0  0  0  0  0  0  0  0  0  0  0
    2.5240  -11.8470   -0.8900 H   0  0  0  0  0  0  0  0  0  0  0  0
    4.4830  -10.0980    0.0000 H   0  0  0  0  0  0  0  0  0  0  0  0
    6.8840  -11.3760   -0.8900 H   0  0  0  0  0  0  0  0  0  0  0  0
    6.8840  -11.3760    0.8900 H   0  0  0  0  0  0  0  0  0  0  0  0
    6.8610   -8.9850    0.8900 H   0  0  0  0  0  0  0  0  0  0  0  0
    6.8610   -8.9850   -0.8900 H   0  0  0  0  0  0  0  0  0  0  0  0
    9.0520   -9.9450   -0.8900 H   0  0  0  0  0  0  0  0  0  0  0  0
    9.0520   -9.9450    0.8900 H   0  0  0  0  0  0  0  0  0  0  0  0
    9.0290   -7.5530    0.8900 H   0  0  0  0  0  0  0  0  0  0  0  0
   10.4640   -8.1470    0.0000 H   0  0  0  0  0  0  0  0  0  0  0  0
    9.0290   -7.5530   -0.8900 H   0  0  0  0  0  0  0  0  0  0  0  0
   -2.2160  -14.6330    0.0000 H   0  0  0  0  0  0  0  0  0  0  0  0
  1  2  1  0  0  0  0
  1 18  1  0  0  0  0
  1 19  1  0  0  0  0
  1 20  1  0  0  0  0
  2  3  1  0  0  0  0
  2 21  1  0  0  0  0
  2 22  1  0  0  0  0
  3  4  1  0  0  0  0
  3 17  2  0  0  0  0
  4  5  2  0  0  0  0
  5  6  1  0  0  0  0
  6  7  1  0  0  0  0
  6 17  1  0  0  0  0
  7  8  1  0  0  0  0
  7 23  1  0  0  0  0
  7 24  1  0  0  0  0
  8  9  1  0  0  0  0
  8 25  1  0  0  0  0
  8 26  1  0  0  0  0
  9 10  1  0  0  0  0
  9 27  1  0  0  0  0
  9 28  1  0  0  0  0
 10 11  2  0  0  0  0
 10 12  1  0  0  0  0
 12 13  1  0  0  0  0
 12 29  1  0  0  0  0
 13 14  1  0  0  0  0
 13 30  1  0  0  0  0
 13 31  1  0  0  0  0
 14 15  1  0  0  0  0
 14 32  1  0  0  0  0
 14 33  1  0  0  0  0
 15 16  1  0  0  0  0
 15 34  1  0  0  0  0
 15 35  1  0  0  0  0
 16 36  1  0  0  0  0
 16 37  1  0  0  0  0
 16 38  1  0  0  0  0
 17 39  1  0  0  0  0
M  END
