3hll_5.pdb
  MOE2019           3D

 22 21  0  0  0  0  0  0  0  0999 V2000
   10.6280   -6.5610    0.0000 C   0  0  0  0  0  0  0  0  0  0  0  0
   11.9270   -7.3110    0.0000 C   0  0  0  0  0  0  0  0  0  0  0  0
   13.2260   -6.5610    0.0000 O   0  0  0  0  0  0  0  0  0  0  0  0
   14.5250   -7.3110    0.0000 C   0  0  0  0  0  0  0  0  0  0  0  0
   15.8240   -6.5610    0.0000 C   0  0  0  0  0  0  0  0  0  0  0  0
   17.1230   -7.3110    0.0000 O   0  0  0  0  0  0  0  0  0  0  0  0
   18.4220   -6.5610    0.0000 C   0  0  0  0  0  0  0  0  0  0  0  0
   19.7210   -7.3110    0.0000 C   0  0  0  0  0  0  0  0  0  0  0  0
   10.6280   -5.9320    0.8900 H   0  0  0  0  0  0  0  0  0  0  0  0
    9.7580   -7.2180    0.0000 H   0  0  0  0  0  0  0  0  0  0  0  0
   10.6280   -5.9320   -0.8900 H   0  0  0  0  0  0  0  0  0  0  0  0
   11.9270   -7.9400   -0.8900 H   0  0  0  0  0  0  0  0  0  0  0  0
   11.9270   -7.9400    0.8900 H   0  0  0  0  0  0  0  0  0  0  0  0
   14.5250   -7.9400   -0.8900 H   0  0  0  0  0  0  0  0  0  0  0  0
   14.5250   -7.9400    0.8900 H   0  0  0  0  0  0  0  0  0  0  0  0
   15.8240   -5.9320    0.8900 H   0  0  0  0  0  0  0  0  0  0  0  0
   15.8240   -5.9320   -0.8900 H   0  0  0  0  0  0  0  0  0  0  0  0
   18.4220   -5.9320    0.8900 H   0  0  0  0  0  0  0  0  0  0  0  0
   18.4220   -5.9320   -0.8900 H   0  0  0  0  0  0  0  0  0  0  0  0
   19.7210   -7.9400   -0.8900 H   0  0  0  0  0  0  0  0  0  0  0  0
   20.5910   -6.6540    0.0000 H   0  0  0  0  0  0  0  0  0  0  0  0
   19.7210   -7.9400    0.8900 H   0  0  0  0  0  0  0  0  0  0  0  0
  1  2  1  0  0  0  0
  1  9  1  0  0  0  0
  1 10  1  0  0  0  0
  1 11  1  0  0  0  0
  2  3  1  0  0  0  0
  2 12  1  0  0  0  0
  2 13  1  0  0  0  0
  3  4  1  0  0  0  0
  4  5  1  0  0  0  0
  4 14  1  0  0  0  0
  4 15  1  0  0  0  0
  5  6  1  0  0  0  0
  5 16  1  0  0  0  0
  5 17  1  0  0  0  0
  6  7  1  0  0  0  0
  7  8  1  0  0  0  0
  7 18  1  0  0  0  0
  7 19  1  0  0  0  0
  8 20  1  0  0  0  0
  8 21  1  0  0  0  0
  8 22  1  0  0  0  0
M  END
