3hll_10.pdb
  MOE2019           3D

 53 53  0  0  0  0  0  0  0  0999 V2000
    1.8180  -12.2570    0.0000 C   0  0  0  0  0  0  0  0  0  0  0  0
    3.3170  -12.3310    0.0000 C   0  0  0  0  0  0  0  0  0  0  0  0
    4.0020  -13.6650    0.0000 C   0  0  0  0  0  0  0  0  0  0  0  0
    5.5000  -13.7390    0.0000 C   0  0  0  0  0  0  0  0  0  0  0  0
    6.1860  -15.0730    0.0000 C   0  0  0  0  0  0  0  0  0  0  0  0
    5.5090  -16.4120    0.0000 N   0  0  0  0  0  0  0  0  0  0  0  0
    6.5730  -17.4690    0.0000 N   0  0  0  0  0  0  0  0  0  0  0  0
    7.9080  -16.7830    0.0000 N   0  0  0  0  0  0  0  0  0  0  0  0
    9.2460  -17.4600    0.0000 C   0  0  0  0  0  0  0  0  0  0  0  0
   10.5020  -16.6380    0.0000 C   0  0  0  0  0  0  0  0  0  0  0  0
   11.8400  -17.3150    0.0000 C   0  0  0  0  0  0  0  0  0  0  0  0
   13.0960  -16.4940    0.0000 C   0  0  0  0  0  0  0  0  0  0  0  0
   13.0120  -14.9960    0.0000 O   0  0  0  0  0  0  0  0  0  0  0  0
   14.4340  -17.1700    0.0000 N   0  0  0  0  0  0  0  0  0  0  0  0
   15.6900  -16.3490    0.0000 C   0  0  0  0  0  0  0  0  0  0  0  0
   17.0290  -17.0260    0.0000 C   0  0  0  0  0  0  0  0  0  0  0  0
   18.2840  -16.2040    0.0000 O   0  0  0  0  0  0  0  0  0  0  0  0
   19.6230  -16.8810    0.0000 C   0  0  0  0  0  0  0  0  0  0  0  0
   20.8780  -16.0600    0.0000 C   0  0  0  0  0  0  0  0  0  0  0  0
   22.2170  -16.7360    0.0000 O   0  0  0  0  0  0  0  0  0  0  0  0
   23.4720  -15.9150    0.0000 C   0  0  0  0  0  0  0  0  0  0  0  0
   24.8110  -16.5920    0.0000 C   0  0  0  0  0  0  0  0  0  0  0  0
    7.6680  -15.3020    0.0000 C   0  0  0  0  0  0  0  0  0  0  0  0
    1.5300  -11.6970    0.8900 H   0  0  0  0  0  0  0  0  0  0  0  0
    1.3450  -13.2390    0.0000 H   0  0  0  0  0  0  0  0  0  0  0  0
    1.5300  -11.6970   -0.8900 H   0  0  0  0  0  0  0  0  0  0  0  0
    3.6580  -11.8020    0.8900 H   0  0  0  0  0  0  0  0  0  0  0  0
    3.6580  -11.8020   -0.8900 H   0  0  0  0  0  0  0  0  0  0  0  0
    3.6610  -14.1940   -0.8900 H   0  0  0  0  0  0  0  0  0  0  0  0
    3.6610  -14.1940    0.8900 H   0  0  0  0  0  0  0  0  0  0  0  0
    5.8410  -13.2100    0.8900 H   0  0  0  0  0  0  0  0  0  0  0  0
    5.8410  -13.2100   -0.8900 H   0  0  0  0  0  0  0  0  0  0  0  0
    9.2810  -18.0880   -0.8900 H   0  0  0  0  0  0  0  0  0  0  0  0
    9.2810  -18.0880    0.8900 H   0  0  0  0  0  0  0  0  0  0  0  0
   10.4670  -16.0100    0.8900 H   0  0  0  0  0  0  0  0  0  0  0  0
   10.4670  -16.0100   -0.8900 H   0  0  0  0  0  0  0  0  0  0  0  0
   11.8750  -17.9430   -0.8900 H   0  0  0  0  0  0  0  0  0  0  0  0
   11.8750  -17.9430    0.8900 H   0  0  0  0  0  0  0  0  0  0  0  0
   14.4900  -18.1780    0.0000 H   0  0  0  0  0  0  0  0  0  0  0  0
   15.6550  -15.7210    0.8900 H   0  0  0  0  0  0  0  0  0  0  0  0
   15.6550  -15.7210   -0.8900 H   0  0  0  0  0  0  0  0  0  0  0  0
   17.0640  -17.6540   -0.8900 H   0  0  0  0  0  0  0  0  0  0  0  0
   17.0640  -17.6540    0.8900 H   0  0  0  0  0  0  0  0  0  0  0  0
   19.6580  -17.5090   -0.8900 H   0  0  0  0  0  0  0  0  0  0  0  0
   19.6580  -17.5090    0.8900 H   0  0  0  0  0  0  0  0  0  0  0  0
   20.8430  -15.4320    0.8900 H   0  0  0  0  0  0  0  0  0  0  0  0
   20.8430  -15.4320   -0.8900 H   0  0  0  0  0  0  0  0  0  0  0  0
   23.4370  -15.2870    0.8900 H   0  0  0  0  0  0  0  0  0  0  0  0
   23.4370  -15.2870   -0.8900 H   0  0  0  0  0  0  0  0  0  0  0  0
   24.8460  -17.2200   -0.8900 H   0  0  0  0  0  0  0  0  0  0  0  0
   25.6430  -15.8880    0.0000 H   0  0  0  0  0  0  0  0  0  0  0  0
   24.8460  -17.2200    0.8900 H   0  0  0  0  0  0  0  0  0  0  0  0
    8.4290  -14.5360    0.0000 H   0  0  0  0  0  0  0  0  0  0  0  0
  1  2  1  0  0  0  0
  1 24  1  0  0  0  0
  1 25  1  0  0  0  0
  1 26  1  0  0  0  0
  2  3  1  0  0  0  0
  2 27  1  0  0  0  0
  2 28  1  0  0  0  0
  3  4  1  0  0  0  0
  3 29  1  0  0  0  0
  3 30  1  0  0  0  0
  4  5  1  0  0  0  0
  4 31  1  0  0  0  0
  4 32  1  0  0  0  0
  5  6  1  0  0  0  0
  5 23  2  0  0  0  0
  6  7  2  0  0  0  0
  7  8  1  0  0  0  0
  8  9  1  0  0  0  0
  8 23  1  0  0  0  0
  9 10  1  0  0  0  0
  9 33  1  0  0  0  0
  9 34  1  0  0  0  0
 10 11  1  0  0  0  0
 10 35  1  0  0  0  0
 10 36  1  0  0  0  0
 11 12  1  0  0  0  0
 11 37  1  0  0  0  0
 11 38  1  0  0  0  0
 12 13  2  0  0  0  0
 12 14  1  0  0  0  0
 14 15  1  0  0  0  0
 14 39  1  0  0  0  0
 15 16  1  0  0  0  0
 15 40  1  0  0  0  0
 15 41  1  0  0  0  0
 16 17  1  0  0  0  0
 16 42  1  0  0  0  0
 16 43  1  0  0  0  0
 17 18  1  0  0  0  0
 18 19  1  0  0  0  0
 18 44  1  0  0  0  0
 18 45  1  0  0  0  0
 19 20  1  0  0  0  0
 19 46  1  0  0  0  0
 19 47  1  0  0  0  0
 20 21  1  0  0  0  0
 21 22  1  0  0  0  0
 21 48  1  0  0  0  0
 21 49  1  0  0  0  0
 22 50  1  0  0  0  0
 22 51  1  0  0  0  0
 22 52  1  0  0  0  0
 23 53  1  0  0  0  0
M  END
