3ik3_3.pdb
  MOE2019           3D

 34 34  0  0  0  0  0  0  0  0999 V2000
   -4.8060   15.9540    0.0000 C   0  0  0  0  0  0  0  0  0  0  0  0
   -4.0050   14.6860    0.0000 C   0  0  0  0  0  0  0  0  0  0  0  0
   -2.5060   14.7460    0.0000 C   0  0  0  0  0  0  0  0  0  0  0  0
   -1.6730   15.9940    0.0000 N   0  0  0  0  0  0  0  0  0  0  0  0
   -0.2290   15.5880    0.0000 N   0  0  0  0  0  0  0  0  0  0  0  0
   -0.1690   14.0890    0.0000 N   0  0  0  0  0  0  0  0  0  0  0  0
    1.0780   13.2570    0.0000 C   0  0  0  0  0  0  0  0  0  0  0  0
    2.4230   13.9210    0.0000 C   0  0  0  0  0  0  0  0  0  0  0  0
    3.6710   13.0890    0.0000 O   0  0  0  0  0  0  0  0  0  0  0  0
    5.0160   13.7530    0.0000 C   0  0  0  0  0  0  0  0  0  0  0  0
    6.2640   12.9210    0.0000 C   0  0  0  0  0  0  0  0  0  0  0  0
    7.6090   13.5850    0.0000 O   0  0  0  0  0  0  0  0  0  0  0  0
    8.8560   12.7520    0.0000 C   0  0  0  0  0  0  0  0  0  0  0  0
    8.7590   11.2560    0.0000 C   0  0  0  0  0  0  0  0  0  0  0  0
   -1.5760   13.5690    0.0000 C   0  0  0  0  0  0  0  0  0  0  0  0
   -4.5130   16.5110    0.8900 H   0  0  0  0  0  0  0  0  0  0  0  0
   -5.8820   15.7770    0.0000 H   0  0  0  0  0  0  0  0  0  0  0  0
   -4.5130   16.5110   -0.8900 H   0  0  0  0  0  0  0  0  0  0  0  0
   -4.2980   14.1290   -0.8900 H   0  0  0  0  0  0  0  0  0  0  0  0
   -4.2980   14.1290    0.8900 H   0  0  0  0  0  0  0  0  0  0  0  0
    1.0370   12.6290   -0.8900 H   0  0  0  0  0  0  0  0  0  0  0  0
    1.0370   12.6290    0.8900 H   0  0  0  0  0  0  0  0  0  0  0  0
    2.4640   14.5490    0.8900 H   0  0  0  0  0  0  0  0  0  0  0  0
    2.4640   14.5490   -0.8900 H   0  0  0  0  0  0  0  0  0  0  0  0
    5.0570   14.3810    0.8900 H   0  0  0  0  0  0  0  0  0  0  0  0
    5.0570   14.3810   -0.8900 H   0  0  0  0  0  0  0  0  0  0  0  0
    6.2230   12.2930   -0.8900 H   0  0  0  0  0  0  0  0  0  0  0  0
    6.2230   12.2930    0.8900 H   0  0  0  0  0  0  0  0  0  0  0  0
    9.4200   13.0310    0.8900 H   0  0  0  0  0  0  0  0  0  0  0  0
    9.4200   13.0310   -0.8900 H   0  0  0  0  0  0  0  0  0  0  0  0
    8.1950   10.9770   -0.8900 H   0  0  0  0  0  0  0  0  0  0  0  0
    9.7340   10.7680    0.0000 H   0  0  0  0  0  0  0  0  0  0  0  0
    8.1950   10.9770    0.8900 H   0  0  0  0  0  0  0  0  0  0  0  0
   -1.8680   12.5290    0.0000 H   0  0  0  0  0  0  0  0  0  0  0  0
  1  2  1  0  0  0  0
  1 16  1  0  0  0  0
  1 17  1  0  0  0  0
  1 18  1  0  0  0  0
  2  3  1  0  0  0  0
  2 19  1  0  0  0  0
  2 20  1  0  0  0  0
  3  4  1  0  0  0  0
  3 15  2  0  0  0  0
  4  5  2  0  0  0  0
  5  6  1  0  0  0  0
  6  7  1  0  0  0  0
  6 15  1  0  0  0  0
  7  8  1  0  0  0  0
  7 21  1  0  0  0  0
  7 22  1  0  0  0  0
  8  9  1  0  0  0  0
  8 23  1  0  0  0  0
  8 24  1  0  0  0  0
  9 10  1  0  0  0  0
 10 11  1  0  0  0  0
 10 25  1  0  0  0  0
 10 26  1  0  0  0  0
 11 12  1  0  0  0  0
 11 27  1  0  0  0  0
 11 28  1  0  0  0  0
 12 13  1  0  0  0  0
 13 14  1  0  0  0  0
 13 29  1  0  0  0  0
 13 30  1  0  0  0  0
 14 31  1  0  0  0  0
 14 32  1  0  0  0  0
 14 33  1  0  0  0  0
 15 34  1  0  0  0  0
M  END
