3k6p_25.pdb
  MOE2019           3D

 12 11  0  0  0  0  0  0  0  0999 V2000
    4.1780  -16.4160    0.0000 C   0  0  0  0  0  0  0  0  0  0  0  0
    5.3970  -15.5410    0.0000 C   0  0  0  0  0  0  0  0  0  0  0  0
    6.7630  -16.1600    0.0000 O   0  0  0  0  0  0  0  0  0  0  0  0
    7.9820  -15.2860    0.0000 C   0  0  0  0  0  0  0  0  0  0  0  0
    4.2400  -17.0420    0.8900 H   0  0  0  0  0  0  0  0  0  0  0  0
    3.2480  -15.8480    0.0000 H   0  0  0  0  0  0  0  0  0  0  0  0
    4.2400  -17.0420   -0.8900 H   0  0  0  0  0  0  0  0  0  0  0  0
    5.3350  -14.9150    0.8900 H   0  0  0  0  0  0  0  0  0  0  0  0
    5.3350  -14.9150   -0.8900 H   0  0  0  0  0  0  0  0  0  0  0  0
    7.9200  -14.6600   -0.8900 H   0  0  0  0  0  0  0  0  0  0  0  0
    7.9200  -14.6600    0.8900 H   0  0  0  0  0  0  0  0  0  0  0  0
    8.9120  -15.8540    0.0000 H   0  0  0  0  0  0  0  0  0  0  0  0
  1  2  1  0  0  0  0
  1  5  1  0  0  0  0
  1  6  1  0  0  0  0
  1  7  1  0  0  0  0
  2  3  1  0  0  0  0
  2  8  1  0  0  0  0
  2  9  1  0  0  0  0
  3  4  1  0  0  0  0
  4 10  1  0  0  0  0
  4 11  1  0  0  0  0
  4 12  1  0  0  0  0
M  END
