3k6p_11.pdb
  MOE2019           3D

 22 21  0  0  0  0  0  0  0  0999 V2000
  -19.3300    0.6880    0.0000 C   0  0  0  0  0  0  0  0  0  0  0  0
  -18.0310    1.4380    0.0000 C   0  0  0  0  0  0  0  0  0  0  0  0
  -16.7320    0.6880    0.0000 O   0  0  0  0  0  0  0  0  0  0  0  0
  -15.4330    1.4380    0.0000 C   0  0  0  0  0  0  0  0  0  0  0  0
  -14.1340    0.6880    0.0000 C   0  0  0  0  0  0  0  0  0  0  0  0
  -12.8350    1.4380    0.0000 O   0  0  0  0  0  0  0  0  0  0  0  0
  -11.5360    0.6880    0.0000 C   0  0  0  0  0  0  0  0  0  0  0  0
  -11.5360    0.0590   -0.8900 H   0  0  0  0  0  0  0  0  0  0  0  0
  -11.5360    0.0590    0.8900 H   0  0  0  0  0  0  0  0  0  0  0  0
  -19.3300    0.0590    0.8900 H   0  0  0  0  0  0  0  0  0  0  0  0
  -19.3300    0.0590   -0.8900 H   0  0  0  0  0  0  0  0  0  0  0  0
  -20.2000    1.3450    0.0000 H   0  0  0  0  0  0  0  0  0  0  0  0
  -18.0310    2.0670    0.8900 H   0  0  0  0  0  0  0  0  0  0  0  0
  -18.0310    2.0670   -0.8900 H   0  0  0  0  0  0  0  0  0  0  0  0
  -15.4330    2.0670   -0.8900 H   0  0  0  0  0  0  0  0  0  0  0  0
  -15.4330    2.0670    0.8900 H   0  0  0  0  0  0  0  0  0  0  0  0
  -14.1340    0.0590   -0.8900 H   0  0  0  0  0  0  0  0  0  0  0  0
  -14.1340    0.0590    0.8900 H   0  0  0  0  0  0  0  0  0  0  0  0
  -10.2370    1.4380    0.0000 C   0  0  0  0  0  0  0  0  0  0  0  0
  -10.2370    2.0670   -0.8900 H   0  0  0  0  0  0  0  0  0  0  0  0
  -10.2370    2.0670    0.8900 H   0  0  0  0  0  0  0  0  0  0  0  0
   -9.3680    0.7810    0.0000 H   0  0  0  0  0  0  0  0  0  0  0  0
  1  2  1  0  0  0  0
  1 10  1  0  0  0  0
  1 11  1  0  0  0  0
  1 12  1  0  0  0  0
  2  3  1  0  0  0  0
  2 13  1  0  0  0  0
  2 14  1  0  0  0  0
  3  4  1  0  0  0  0
  4  5  1  0  0  0  0
  4 15  1  0  0  0  0
  4 16  1  0  0  0  0
  5  6  1  0  0  0  0
  5 17  1  0  0  0  0
  5 18  1  0  0  0  0
  6  7  1  0  0  0  0
  7  8  1  0  0  0  0
  7  9  1  0  0  0  0
  7 19  1  0  0  0  0
 19 20  1  0  0  0  0
 19 21  1  0  0  0  0
 19 22  1  0  0  0  0
M  END
