3k6p_13.pdb
  MOE2019           3D

 14 13  0  0  0  0  0  0  0  0999 V2000
   -0.7470   -8.8770    0.0000 C   0  0  0  0  0  0  0  0  0  0  0  0
    0.0030  -10.1760    0.0000 C   0  0  0  0  0  0  0  0  0  0  0  0
    1.5030  -10.1760    0.0000 C   0  0  0  0  0  0  0  0  0  0  0  0
    2.2530  -11.4750    0.0000 C   0  0  0  0  0  0  0  0  0  0  0  0
   -0.4320   -8.3320   -0.8900 H   0  0  0  0  0  0  0  0  0  0  0  0
   -0.4320   -8.3320    0.8900 H   0  0  0  0  0  0  0  0  0  0  0  0
   -1.8290   -9.0110    0.0000 H   0  0  0  0  0  0  0  0  0  0  0  0
   -0.3120  -10.7210    0.8900 H   0  0  0  0  0  0  0  0  0  0  0  0
   -0.3120  -10.7210   -0.8900 H   0  0  0  0  0  0  0  0  0  0  0  0
    1.8180   -9.6310    0.8900 H   0  0  0  0  0  0  0  0  0  0  0  0
    1.8180   -9.6310   -0.8900 H   0  0  0  0  0  0  0  0  0  0  0  0
    1.9380  -12.0200   -0.8900 H   0  0  0  0  0  0  0  0  0  0  0  0
    1.9380  -12.0200    0.8900 H   0  0  0  0  0  0  0  0  0  0  0  0
    3.3350  -11.3410    0.0000 H   0  0  0  0  0  0  0  0  0  0  0  0
  1  2  1  0  0  0  0
  1  5  1  0  0  0  0
  1  6  1  0  0  0  0
  1  7  1  0  0  0  0
  2  3  1  0  0  0  0
  2  8  1  0  0  0  0
  2  9  1  0  0  0  0
  3  4  1  0  0  0  0
  3 10  1  0  0  0  0
  3 11  1  0  0  0  0
  4 12  1  0  0  0  0
  4 13  1  0  0  0  0
  4 14  1  0  0  0  0
M  END
