3k6p_24.pdb
  MOE2019           3D

 24 23  0  0  0  0  0  0  0  0999 V2000
    8.5850   -9.7120    0.0000 C   0  0  0  0  0  0  0  0  0  0  0  0
    9.3200  -11.0190    0.0000 C   0  0  0  0  0  0  0  0  0  0  0  0
    8.5550  -12.3100    0.0000 O   0  0  0  0  0  0  0  0  0  0  0  0
   10.8200  -11.0360    0.0000 N   0  0  0  0  0  0  0  0  0  0  0  0
   11.5550  -12.3430    0.0000 C   0  0  0  0  0  0  0  0  0  0  0  0
   13.0550  -12.3600    0.0000 C   0  0  0  0  0  0  0  0  0  0  0  0
   13.7910  -13.6670    0.0000 C   0  0  0  0  0  0  0  0  0  0  0  0
   15.2900  -13.6840    0.0000 C   0  0  0  0  0  0  0  0  0  0  0  0
   16.0260  -14.9920    0.0000 C   0  0  0  0  0  0  0  0  0  0  0  0
    8.9060   -9.1710   -0.8900 H   0  0  0  0  0  0  0  0  0  0  0  0
    8.9060   -9.1710    0.8900 H   0  0  0  0  0  0  0  0  0  0  0  0
    7.5020   -9.8340    0.0000 H   0  0  0  0  0  0  0  0  0  0  0  0
   11.3350  -10.1670    0.0000 H   0  0  0  0  0  0  0  0  0  0  0  0
   11.2340  -12.8840    0.8900 H   0  0  0  0  0  0  0  0  0  0  0  0
   11.2340  -12.8840   -0.8900 H   0  0  0  0  0  0  0  0  0  0  0  0
   13.3760  -11.8180   -0.8900 H   0  0  0  0  0  0  0  0  0  0  0  0
   13.3760  -11.8180    0.8900 H   0  0  0  0  0  0  0  0  0  0  0  0
   13.4700  -14.2090    0.8900 H   0  0  0  0  0  0  0  0  0  0  0  0
   13.4700  -14.2090   -0.8900 H   0  0  0  0  0  0  0  0  0  0  0  0
   15.6110  -13.1430    0.8900 H   0  0  0  0  0  0  0  0  0  0  0  0
   15.6110  -13.1430   -0.8900 H   0  0  0  0  0  0  0  0  0  0  0  0
   15.7050  -15.5330   -0.8900 H   0  0  0  0  0  0  0  0  0  0  0  0
   15.7050  -15.5330    0.8900 H   0  0  0  0  0  0  0  0  0  0  0  0
   17.1090  -14.8700    0.0000 H   0  0  0  0  0  0  0  0  0  0  0  0
  1  2  1  0  0  0  0
  1 10  1  0  0  0  0
  1 11  1  0  0  0  0
  1 12  1  0  0  0  0
  2  3  2  0  0  0  0
  2  4  1  0  0  0  0
  4  5  1  0  0  0  0
  4 13  1  0  0  0  0
  5  6  1  0  0  0  0
  5 14  1  0  0  0  0
  5 15  1  0  0  0  0
  6  7  1  0  0  0  0
  6 16  1  0  0  0  0
  6 17  1  0  0  0  0
  7  8  1  0  0  0  0
  7 18  1  0  0  0  0
  7 19  1  0  0  0  0
  8  9  1  0  0  0  0
  8 20  1  0  0  0  0
  8 21  1  0  0  0  0
  9 22  1  0  0  0  0
  9 23  1  0  0  0  0
  9 24  1  0  0  0  0
M  END
