3krr_9.pdb
  MOE2019           3D

 51 50  0  0  0  0  0  0  0  0999 V2000
  -17.4970   -8.8650    0.0000 C   0  0  0  0  0  0  0  0  0  0  0  0
  -16.1980   -9.6150    0.0000 C   0  0  0  0  0  0  0  0  0  0  0  0
  -14.8990   -8.8650    0.0000 O   0  0  0  0  0  0  0  0  0  0  0  0
  -13.6000   -9.6150    0.0000 C   0  0  0  0  0  0  0  0  0  0  0  0
  -12.3000   -8.8650    0.0000 C   0  0  0  0  0  0  0  0  0  0  0  0
  -11.0010   -9.6150    0.0000 O   0  0  0  0  0  0  0  0  0  0  0  0
   -9.7020   -8.8650    0.0000 C   0  0  0  0  0  0  0  0  0  0  0  0
   -8.4030   -9.6150    0.0000 C   0  0  0  0  0  0  0  0  0  0  0  0
   -7.1040   -8.8650    0.0000 O   0  0  0  0  0  0  0  0  0  0  0  0
   -5.8050   -9.6150    0.0000 C   0  0  0  0  0  0  0  0  0  0  0  0
   -4.5060   -8.8650    0.0000 C   0  0  0  0  0  0  0  0  0  0  0  0
   -3.2070   -9.6150    0.0000 O   0  0  0  0  0  0  0  0  0  0  0  0
   -1.9080   -8.8650    0.0000 C   0  0  0  0  0  0  0  0  0  0  0  0
   -0.6090   -9.6150    0.0000 C   0  0  0  0  0  0  0  0  0  0  0  0
    0.6900   -8.8650    0.0000 O   0  0  0  0  0  0  0  0  0  0  0  0
    1.9890   -9.6150    0.0000 C   0  0  0  0  0  0  0  0  0  0  0  0
    3.2880   -8.8650    0.0000 C   0  0  0  0  0  0  0  0  0  0  0  0
    4.5870   -9.6150    0.0000 O   0  0  0  0  0  0  0  0  0  0  0  0
    5.8860   -8.8650    0.0000 C   0  0  0  0  0  0  0  0  0  0  0  0
    7.1850   -9.6150    0.0000 C   0  0  0  0  0  0  0  0  0  0  0  0
    7.1850  -11.1150    0.0000 O   0  0  0  0  0  0  0  0  0  0  0  0
    8.4840   -8.8650    0.0000 N   0  0  0  0  0  0  0  0  0  0  0  0
  -17.4970   -8.2360    0.8900 H   0  0  0  0  0  0  0  0  0  0  0  0
  -17.4970   -8.2360   -0.8900 H   0  0  0  0  0  0  0  0  0  0  0  0
  -18.3670   -9.5220    0.0000 H   0  0  0  0  0  0  0  0  0  0  0  0
  -16.1980  -10.2440   -0.8900 H   0  0  0  0  0  0  0  0  0  0  0  0
  -16.1980  -10.2440    0.8900 H   0  0  0  0  0  0  0  0  0  0  0  0
  -13.6000  -10.2440   -0.8900 H   0  0  0  0  0  0  0  0  0  0  0  0
  -13.6000  -10.2440    0.8900 H   0  0  0  0  0  0  0  0  0  0  0  0
  -12.3000   -8.2360    0.8900 H   0  0  0  0  0  0  0  0  0  0  0  0
  -12.3000   -8.2360   -0.8900 H   0  0  0  0  0  0  0  0  0  0  0  0
   -9.7020   -8.2360    0.8900 H   0  0  0  0  0  0  0  0  0  0  0  0
   -9.7020   -8.2360   -0.8900 H   0  0  0  0  0  0  0  0  0  0  0  0
   -8.4030  -10.2440   -0.8900 H   0  0  0  0  0  0  0  0  0  0  0  0
   -8.4030  -10.2440    0.8900 H   0  0  0  0  0  0  0  0  0  0  0  0
   -5.8050  -10.2440   -0.8900 H   0  0  0  0  0  0  0  0  0  0  0  0
   -5.8050  -10.2440    0.8900 H   0  0  0  0  0  0  0  0  0  0  0  0
   -4.5060   -8.2360    0.8900 H   0  0  0  0  0  0  0  0  0  0  0  0
   -4.5060   -8.2360   -0.8900 H   0  0  0  0  0  0  0  0  0  0  0  0
   -1.9080   -8.2360    0.8900 H   0  0  0  0  0  0  0  0  0  0  0  0
   -1.9080   -8.2360   -0.8900 H   0  0  0  0  0  0  0  0  0  0  0  0
   -0.6090  -10.2440   -0.8900 H   0  0  0  0  0  0  0  0  0  0  0  0
   -0.6090  -10.2440    0.8900 H   0  0  0  0  0  0  0  0  0  0  0  0
    1.9890  -10.2440   -0.8900 H   0  0  0  0  0  0  0  0  0  0  0  0
    1.9890  -10.2440    0.8900 H   0  0  0  0  0  0  0  0  0  0  0  0
    3.2880   -8.2360    0.8900 H   0  0  0  0  0  0  0  0  0  0  0  0
    3.2880   -8.2360   -0.8900 H   0  0  0  0  0  0  0  0  0  0  0  0
    5.8860   -8.2360    0.8900 H   0  0  0  0  0  0  0  0  0  0  0  0
    5.8860   -8.2360   -0.8900 H   0  0  0  0  0  0  0  0  0  0  0  0
    9.3590   -9.3700    0.0000 H   0  0  0  0  0  0  0  0  0  0  0  0
    8.4840   -7.8550    0.0000 H   0  0  0  0  0  0  0  0  0  0  0  0
  1  2  1  0  0  0  0
  1 23  1  0  0  0  0
  1 24  1  0  0  0  0
  1 25  1  0  0  0  0
  2  3  1  0  0  0  0
  2 26  1  0  0  0  0
  2 27  1  0  0  0  0
  3  4  1  0  0  0  0
  4  5  1  0  0  0  0
  4 28  1  0  0  0  0
  4 29  1  0  0  0  0
  5  6  1  0  0  0  0
  5 30  1  0  0  0  0
  5 31  1  0  0  0  0
  6  7  1  0  0  0  0
  7  8  1  0  0  0  0
  7 32  1  0  0  0  0
  7 33  1  0  0  0  0
  8  9  1  0  0  0  0
  8 34  1  0  0  0  0
  8 35  1  0  0  0  0
  9 10  1  0  0  0  0
 10 11  1  0  0  0  0
 10 36  1  0  0  0  0
 10 37  1  0  0  0  0
 11 12  1  0  0  0  0
 11 38  1  0  0  0  0
 11 39  1  0  0  0  0
 12 13  1  0  0  0  0
 13 14  1  0  0  0  0
 13 40  1  0  0  0  0
 13 41  1  0  0  0  0
 14 15  1  0  0  0  0
 14 42  1  0  0  0  0
 14 43  1  0  0  0  0
 15 16  1  0  0  0  0
 16 17  1  0  0  0  0
 16 44  1  0  0  0  0
 16 45  1  0  0  0  0
 17 18  1  0  0  0  0
 17 46  1  0  0  0  0
 17 47  1  0  0  0  0
 18 19  1  0  0  0  0
 19 20  1  0  0  0  0
 19 48  1  0  0  0  0
 19 49  1  0  0  0  0
 20 21  2  0  0  0  0
 20 22  1  0  0  0  0
 22 50  1  0  0  0  0
 22 51  1  0  0  0  0
M  END
