3lq5_22.pdb
  MOE2019           3D

 17 16  0  0  0  0  0  0  0  0999 V2000
    5.5430   -5.5430    0.0000 O   0  0  0  0  0  0  0  0  0  0  0  0
    5.5430   -4.0430    0.0000 C   0  0  0  0  0  0  0  0  0  0  0  0
    6.8420   -3.2930    0.0000 N   0  0  0  0  0  0  0  0  0  0  0  0
    8.1410   -4.0430    0.0000 C   0  0  0  0  0  0  0  0  0  0  0  0
    9.4400   -3.2930    0.0000 C   0  0  0  0  0  0  0  0  0  0  0  0
    9.4400   -2.6640    0.8900 H   0  0  0  0  0  0  0  0  0  0  0  0
    9.4400   -2.6640   -0.8900 H   0  0  0  0  0  0  0  0  0  0  0  0
    4.2440   -3.2930    0.0000 C   0  0  0  0  0  0  0  0  0  0  0  0
    6.8420   -2.2830    0.0000 H   0  0  0  0  0  0  0  0  0  0  0  0
    8.1410   -4.6720   -0.8900 H   0  0  0  0  0  0  0  0  0  0  0  0
    8.1410   -4.6720    0.8900 H   0  0  0  0  0  0  0  0  0  0  0  0
    4.2440   -2.6640   -0.8900 H   0  0  0  0  0  0  0  0  0  0  0  0
    3.3740   -3.9500    0.0000 H   0  0  0  0  0  0  0  0  0  0  0  0
    4.2440   -2.6640    0.8900 H   0  0  0  0  0  0  0  0  0  0  0  0
   10.7390   -4.0430    0.0000 N   0  0  0  0  0  0  0  0  0  0  0  0
   10.7390   -5.0530    0.0000 H   0  0  0  0  0  0  0  0  0  0  0  0
   11.6140   -3.5380    0.0000 H   0  0  0  0  0  0  0  0  0  0  0  0
  1  2  2  0  0  0  0
  2  3  1  0  0  0  0
  2  8  1  0  0  0  0
  3  4  1  0  0  0  0
  3  9  1  0  0  0  0
  4  5  1  0  0  0  0
  4 10  1  0  0  0  0
  4 11  1  0  0  0  0
  5  6  1  0  0  0  0
  5  7  1  0  0  0  0
  5 15  1  0  0  0  0
  8 12  1  0  0  0  0
  8 13  1  0  0  0  0
  8 14  1  0  0  0  0
 15 16  1  0  0  0  0
 15 17  1  0  0  0  0
M  END
