3lq5_21.pdb
  MOE2019           3D

 15 14  0  0  0  0  0  0  0  0999 V2000
   15.5040   -3.3740    0.0000 O   0  0  0  0  0  0  0  0  0  0  0  0
   14.2050   -2.6240    0.0000 C   0  0  0  0  0  0  0  0  0  0  0  0
   14.2050   -1.1240    0.0000 N   0  0  0  0  0  0  0  0  0  0  0  0
   15.5040   -0.3740    0.0000 C   0  0  0  0  0  0  0  0  0  0  0  0
   15.5040    1.1260    0.0000 C   0  0  0  0  0  0  0  0  0  0  0  0
   12.9060   -3.3740    0.0000 C   0  0  0  0  0  0  0  0  0  0  0  0
   13.3300   -0.6190    0.0000 H   0  0  0  0  0  0  0  0  0  0  0  0
   16.0490   -0.6890   -0.8900 H   0  0  0  0  0  0  0  0  0  0  0  0
   16.0490   -0.6890    0.8900 H   0  0  0  0  0  0  0  0  0  0  0  0
   14.9590    1.4410    0.8900 H   0  0  0  0  0  0  0  0  0  0  0  0
   16.5080    1.5500    0.0000 H   0  0  0  0  0  0  0  0  0  0  0  0
   14.9590    1.4410   -0.8900 H   0  0  0  0  0  0  0  0  0  0  0  0
   12.9060   -4.0030    0.8900 H   0  0  0  0  0  0  0  0  0  0  0  0
   12.0360   -2.7170    0.0000 H   0  0  0  0  0  0  0  0  0  0  0  0
   12.9060   -4.0030   -0.8900 H   0  0  0  0  0  0  0  0  0  0  0  0
  1  2  2  0  0  0  0
  2  3  1  0  0  0  0
  2  6  1  0  0  0  0
  3  4  1  0  0  0  0
  3  7  1  0  0  0  0
  4  5  1  0  0  0  0
  4  8  1  0  0  0  0
  4  9  1  0  0  0  0
  5 10  1  0  0  0  0
  5 11  1  0  0  0  0
  5 12  1  0  0  0  0
  6 13  1  0  0  0  0
  6 14  1  0  0  0  0
  6 15  1  0  0  0  0
M  END
