3mxf_18.pdb
  MOE2019           3D

 19 19  0  0  0  0  0  0  0  0999 V2000
    3.0290    5.5950    0.0000 O   0  0  0  0  0  0  0  0  0  0  0  0
    3.8490    4.3390    0.0000 C   0  0  0  0  0  0  0  0  0  0  0  0
    5.3470    4.4220    0.0000 N   0  0  0  0  0  0  0  0  0  0  0  0
    3.1720    3.0010    0.0000 C   0  0  0  0  0  0  0  0  0  0  0  0
    1.6740    2.9190    0.0000 O   0  0  0  0  0  0  0  0  0  0  0  0
    0.9960    1.5810    0.0000 C   0  0  0  0  0  0  0  0  0  0  0  0
   -0.5020    1.4990    0.0000 N   0  0  0  0  0  0  0  0  0  0  0  0
   -1.3160    0.2390    0.0000 N   0  0  0  0  0  0  0  0  0  0  0  0
   -2.7650    0.6240    0.0000 N   0  0  0  0  0  0  0  0  0  0  0  0
   -2.8480    2.1210    0.0000 C   0  0  0  0  0  0  0  0  0  0  0  0
   -3.7550    2.7070    0.0000 H   0  0  0  0  0  0  0  0  0  0  0  0
   -1.4480    2.6620    0.0000 C   0  0  0  0  0  0  0  0  0  0  0  0
    5.8990    3.5760    0.0000 H   0  0  0  0  0  0  0  0  0  0  0  0
    5.8030    5.3230    0.0000 H   0  0  0  0  0  0  0  0  0  0  0  0
    3.5160    2.4740    0.8900 H   0  0  0  0  0  0  0  0  0  0  0  0
    3.5160    2.4740   -0.8900 H   0  0  0  0  0  0  0  0  0  0  0  0
    1.3400    1.0540    0.8900 H   0  0  0  0  0  0  0  0  0  0  0  0
    1.3400    1.0540   -0.8900 H   0  0  0  0  0  0  0  0  0  0  0  0
   -1.1710    3.7060    0.0000 H   0  0  0  0  0  0  0  0  0  0  0  0
  1  2  2  0  0  0  0
  2  3  1  0  0  0  0
  2  4  1  0  0  0  0
  3 13  1  0  0  0  0
  3 14  1  0  0  0  0
  4  5  1  0  0  0  0
  4 15  1  0  0  0  0
  4 16  1  0  0  0  0
  5  6  1  0  0  0  0
  6  7  1  0  0  0  0
  6 17  1  0  0  0  0
  6 18  1  0  0  0  0
  7  8  1  0  0  0  0
  7 12  1  0  0  0  0
  8  9  2  0  0  0  0
  9 10  1  0  0  0  0
 10 11  1  0  0  0  0
 10 12  2  0  0  0  0
 12 19  1  0  0  0  0
M  END
