3mxf_16.pdb
  MOE2019           3D

 19 19  0  0  0  0  0  0  0  0999 V2000
    5.1630    1.6890    0.0000 O   0  0  0  0  0  0  0  0  0  0  0  0
    5.8410    3.0270    0.0000 C   0  0  0  0  0  0  0  0  0  0  0  0
    7.3390    3.1100    0.0000 N   0  0  0  0  0  0  0  0  0  0  0  0
    5.0210    4.2840    0.0000 C   0  0  0  0  0  0  0  0  0  0  0  0
    3.5230    4.2010    0.0000 O   0  0  0  0  0  0  0  0  0  0  0  0
    2.7030    5.4570    0.0000 C   0  0  0  0  0  0  0  0  0  0  0  0
    1.2050    5.3750    0.0000 N   0  0  0  0  0  0  0  0  0  0  0  0
    0.3910    4.1150    0.0000 N   0  0  0  0  0  0  0  0  0  0  0  0
   -1.0580    4.5000    0.0000 N   0  0  0  0  0  0  0  0  0  0  0  0
   -1.1400    5.9980    0.0000 C   0  0  0  0  0  0  0  0  0  0  0  0
   -2.0470    6.5840    0.0000 H   0  0  0  0  0  0  0  0  0  0  0  0
    0.2590    6.5390    0.0000 C   0  0  0  0  0  0  0  0  0  0  0  0
    7.7950    4.0110    0.0000 H   0  0  0  0  0  0  0  0  0  0  0  0
    7.8920    2.2650    0.0000 H   0  0  0  0  0  0  0  0  0  0  0  0
    5.3050    4.8450   -0.8900 H   0  0  0  0  0  0  0  0  0  0  0  0
    5.3050    4.8450    0.8900 H   0  0  0  0  0  0  0  0  0  0  0  0
    2.9870    6.0180   -0.8900 H   0  0  0  0  0  0  0  0  0  0  0  0
    2.9870    6.0180    0.8900 H   0  0  0  0  0  0  0  0  0  0  0  0
    0.5360    7.5830    0.0000 H   0  0  0  0  0  0  0  0  0  0  0  0
  1  2  2  0  0  0  0
  2  3  1  0  0  0  0
  2  4  1  0  0  0  0
  3 13  1  0  0  0  0
  3 14  1  0  0  0  0
  4  5  1  0  0  0  0
  4 15  1  0  0  0  0
  4 16  1  0  0  0  0
  5  6  1  0  0  0  0
  6  7  1  0  0  0  0
  6 17  1  0  0  0  0
  6 18  1  0  0  0  0
  7  8  1  0  0  0  0
  7 12  1  0  0  0  0
  8  9  2  0  0  0  0
  9 10  1  0  0  0  0
 10 11  1  0  0  0  0
 10 12  2  0  0  0  0
 12 19  1  0  0  0  0
M  END
