3mxf_9.pdb
  MOE2019           3D

 18 17  0  0  0  0  0  0  0  0999 V2000
   -1.2230  -12.2980    0.0000 C   0  0  0  0  0  0  0  0  0  0  0  0
    0.0620  -13.0720    0.0000 C   0  0  0  0  0  0  0  0  0  0  0  0
    1.3750  -12.3460    0.0000 C   0  0  0  0  0  0  0  0  0  0  0  0
    2.6600  -13.1200    0.0000 O   0  0  0  0  0  0  0  0  0  0  0  0
    3.9720  -12.3940    0.0000 C   0  0  0  0  0  0  0  0  0  0  0  0
    5.2570  -13.1680    0.0000 C   0  0  0  0  0  0  0  0  0  0  0  0
   -1.2110  -11.6690   -0.8900 H   0  0  0  0  0  0  0  0  0  0  0  0
   -1.2110  -11.6690    0.8900 H   0  0  0  0  0  0  0  0  0  0  0  0
   -2.1050  -12.9390    0.0000 H   0  0  0  0  0  0  0  0  0  0  0  0
    0.0500  -13.7010   -0.8900 H   0  0  0  0  0  0  0  0  0  0  0  0
    0.0500  -13.7010    0.8900 H   0  0  0  0  0  0  0  0  0  0  0  0
    1.3870  -11.7170    0.8900 H   0  0  0  0  0  0  0  0  0  0  0  0
    1.3870  -11.7170   -0.8900 H   0  0  0  0  0  0  0  0  0  0  0  0
    3.9840  -11.7650   -0.8900 H   0  0  0  0  0  0  0  0  0  0  0  0
    3.9840  -11.7650    0.8900 H   0  0  0  0  0  0  0  0  0  0  0  0
    5.2450  -13.7970   -0.8900 H   0  0  0  0  0  0  0  0  0  0  0  0
    5.2450  -13.7970    0.8900 H   0  0  0  0  0  0  0  0  0  0  0  0
    6.1390  -12.5270    0.0000 H   0  0  0  0  0  0  0  0  0  0  0  0
  1  2  1  0  0  0  0
  1  7  1  0  0  0  0
  1  8  1  0  0  0  0
  1  9  1  0  0  0  0
  2  3  1  0  0  0  0
  2 10  1  0  0  0  0
  2 11  1  0  0  0  0
  3  4  1  0  0  0  0
  3 12  1  0  0  0  0
  3 13  1  0  0  0  0
  4  5  1  0  0  0  0
  5  6  1  0  0  0  0
  5 14  1  0  0  0  0
  5 15  1  0  0  0  0
  6 16  1  0  0  0  0
  6 17  1  0  0  0  0
  6 18  1  0  0  0  0
M  END
