3mxf_21.pdb
  MOE2019           3D

 29 29  0  0  0  0  0  0  0  0999 V2000
    5.5470   10.1890    0.0000 O   0  0  0  0  0  0  0  0  0  0  0  0
    6.3610    8.9290    0.0000 C   0  0  0  0  0  0  0  0  0  0  0  0
    7.8590    9.0040    0.0000 N   0  0  0  0  0  0  0  0  0  0  0  0
    5.6770    7.5940    0.0000 C   0  0  0  0  0  0  0  0  0  0  0  0
    4.1790    7.5190    0.0000 O   0  0  0  0  0  0  0  0  0  0  0  0
    3.4950    6.1840    0.0000 C   0  0  0  0  0  0  0  0  0  0  0  0
    1.9970    6.1090    0.0000 C   0  0  0  0  0  0  0  0  0  0  0  0
    1.3130    4.7740    0.0000 O   0  0  0  0  0  0  0  0  0  0  0  0
   -0.1850    4.6990    0.0000 C   0  0  0  0  0  0  0  0  0  0  0  0
   -0.8690    3.3640    0.0000 C   0  0  0  0  0  0  0  0  0  0  0  0
   -2.3670    3.2890    0.0000 N   0  0  0  0  0  0  0  0  0  0  0  0
   -3.1870    2.0320    0.0000 N   0  0  0  0  0  0  0  0  0  0  0  0
   -4.6350    2.4240    0.0000 N   0  0  0  0  0  0  0  0  0  0  0  0
   -4.7100    3.9220    0.0000 C   0  0  0  0  0  0  0  0  0  0  0  0
   -5.6140    4.5120    0.0000 H   0  0  0  0  0  0  0  0  0  0  0  0
   -3.3090    4.4560    0.0000 C   0  0  0  0  0  0  0  0  0  0  0  0
    8.4070    8.1560    0.0000 H   0  0  0  0  0  0  0  0  0  0  0  0
    8.3200    9.9030    0.0000 H   0  0  0  0  0  0  0  0  0  0  0  0
    6.0190    7.0650    0.8900 H   0  0  0  0  0  0  0  0  0  0  0  0
    6.0190    7.0650   -0.8900 H   0  0  0  0  0  0  0  0  0  0  0  0
    3.8370    5.6550    0.8900 H   0  0  0  0  0  0  0  0  0  0  0  0
    3.8370    5.6550   -0.8900 H   0  0  0  0  0  0  0  0  0  0  0  0
    1.6550    6.6380   -0.8900 H   0  0  0  0  0  0  0  0  0  0  0  0
    1.6550    6.6380    0.8900 H   0  0  0  0  0  0  0  0  0  0  0  0
   -0.5270    5.2280   -0.8900 H   0  0  0  0  0  0  0  0  0  0  0  0
   -0.5270    5.2280    0.8900 H   0  0  0  0  0  0  0  0  0  0  0  0
   -0.5270    2.8350    0.8900 H   0  0  0  0  0  0  0  0  0  0  0  0
   -0.5270    2.8350   -0.8900 H   0  0  0  0  0  0  0  0  0  0  0  0
   -3.0270    5.4990    0.0000 H   0  0  0  0  0  0  0  0  0  0  0  0
  1  2  2  0  0  0  0
  2  3  1  0  0  0  0
  2  4  1  0  0  0  0
  3 17  1  0  0  0  0
  3 18  1  0  0  0  0
  4  5  1  0  0  0  0
  4 19  1  0  0  0  0
  4 20  1  0  0  0  0
  5  6  1  0  0  0  0
  6  7  1  0  0  0  0
  6 21  1  0  0  0  0
  6 22  1  0  0  0  0
  7  8  1  0  0  0  0
  7 23  1  0  0  0  0
  7 24  1  0  0  0  0
  8  9  1  0  0  0  0
  9 10  1  0  0  0  0
  9 25  1  0  0  0  0
  9 26  1  0  0  0  0
 10 11  1  0  0  0  0
 10 27  1  0  0  0  0
 10 28  1  0  0  0  0
 11 12  1  0  0  0  0
 11 16  1  0  0  0  0
 12 13  2  0  0  0  0
 13 14  1  0  0  0  0
 14 15  1  0  0  0  0
 14 16  2  0  0  0  0
 16 29  1  0  0  0  0
M  END
