3mxf_36.pdb
  MOE2019           3D

 40 40  0  0  0  0  0  0  0  0999 V2000
    7.6980  -11.2740    0.0000 C   0  0  0  0  0  0  0  0  0  0  0  0
    8.9970  -12.0230    0.0000 C   0  0  0  0  0  0  0  0  0  0  0  0
   10.2960  -11.2720    0.0000 C   0  0  0  0  0  0  0  0  0  0  0  0
   11.5950  -12.0210    0.0000 C   0  0  0  0  0  0  0  0  0  0  0  0
   12.8940  -11.2700    0.0000 C   0  0  0  0  0  0  0  0  0  0  0  0
   14.1940  -12.0190    0.0000 C   0  0  0  0  0  0  0  0  0  0  0  0
   15.4920  -11.2680    0.0000 N   0  0  0  0  0  0  0  0  0  0  0  0
   16.7920  -12.0160    0.0000 C   0  0  0  0  0  0  0  0  0  0  0  0
   16.7930  -13.5160    0.0000 O   0  0  0  0  0  0  0  0  0  0  0  0
   18.0900  -11.2650    0.0000 C   0  0  0  0  0  0  0  0  0  0  0  0
   19.3900  -12.0140    0.0000 O   0  0  0  0  0  0  0  0  0  0  0  0
   20.6880  -11.2630    0.0000 C   0  0  0  0  0  0  0  0  0  0  0  0
   20.6870   -9.7630    0.0000 C   0  0  0  0  0  0  0  0  0  0  0  0
   21.9850   -9.0120    0.0000 C   0  0  0  0  0  0  0  0  0  0  0  0
   23.2850   -9.7610    0.0000 C   0  0  0  0  0  0  0  0  0  0  0  0
   24.5830   -9.0100    0.0000 N   0  0  0  0  0  0  0  0  0  0  0  0
   25.8830   -9.7590    0.0000 N   0  0  0  0  0  0  0  0  0  0  0  0
   25.8840  -10.7690    0.0000 H   0  0  0  0  0  0  0  0  0  0  0  0
   23.2860  -11.2610    0.0000 C   0  0  0  0  0  0  0  0  0  0  0  0
   21.9880  -12.0120    0.0000 C   0  0  0  0  0  0  0  0  0  0  0  0
    7.6980  -10.6450   -0.8900 H   0  0  0  0  0  0  0  0  0  0  0  0
    7.6980  -10.6450    0.8900 H   0  0  0  0  0  0  0  0  0  0  0  0
    6.8280  -11.9310    0.0000 H   0  0  0  0  0  0  0  0  0  0  0  0
    8.9970  -12.6520    0.8900 H   0  0  0  0  0  0  0  0  0  0  0  0
    8.9970  -12.6520   -0.8900 H   0  0  0  0  0  0  0  0  0  0  0  0
   10.2960  -10.6430   -0.8900 H   0  0  0  0  0  0  0  0  0  0  0  0
   10.2960  -10.6430    0.8900 H   0  0  0  0  0  0  0  0  0  0  0  0
   11.5950  -12.6500   -0.8900 H   0  0  0  0  0  0  0  0  0  0  0  0
   11.5950  -12.6500    0.8900 H   0  0  0  0  0  0  0  0  0  0  0  0
   12.8940  -10.6410    0.8900 H   0  0  0  0  0  0  0  0  0  0  0  0
   12.8940  -10.6410   -0.8900 H   0  0  0  0  0  0  0  0  0  0  0  0
   14.1950  -12.6480   -0.8900 H   0  0  0  0  0  0  0  0  0  0  0  0
   14.1950  -12.6480    0.8900 H   0  0  0  0  0  0  0  0  0  0  0  0
   15.4910  -10.2580    0.0000 H   0  0  0  0  0  0  0  0  0  0  0  0
   18.0890  -10.6360    0.8900 H   0  0  0  0  0  0  0  0  0  0  0  0
   18.0890  -10.6360   -0.8900 H   0  0  0  0  0  0  0  0  0  0  0  0
   19.7510   -9.2240    0.0000 H   0  0  0  0  0  0  0  0  0  0  0  0
   21.9840   -7.9320    0.0000 H   0  0  0  0  0  0  0  0  0  0  0  0
   24.2220  -11.8000    0.0000 H   0  0  0  0  0  0  0  0  0  0  0  0
   21.9890  -13.0920    0.0000 H   0  0  0  0  0  0  0  0  0  0  0  0
  1  2  1  0  0  0  0
  1 21  1  0  0  0  0
  1 22  1  0  0  0  0
  1 23  1  0  0  0  0
  2  3  1  0  0  0  0
  2 24  1  0  0  0  0
  2 25  1  0  0  0  0
  3  4  1  0  0  0  0
  3 26  1  0  0  0  0
  3 27  1  0  0  0  0
  4  5  1  0  0  0  0
  4 28  1  0  0  0  0
  4 29  1  0  0  0  0
  5  6  1  0  0  0  0
  5 30  1  0  0  0  0
  5 31  1  0  0  0  0
  6  7  1  0  0  0  0
  6 32  1  0  0  0  0
  6 33  1  0  0  0  0
  7  8  1  0  0  0  0
  7 34  1  0  0  0  0
  8  9  2  0  0  0  0
  8 10  1  0  0  0  0
 10 11  1  0  0  0  0
 10 35  1  0  0  0  0
 10 36  1  0  0  0  0
 11 12  1  0  0  0  0
 12 13  1  0  0  0  0
 12 20  2  0  0  0  0
 13 14  2  0  0  0  0
 13 37  1  0  0  0  0
 14 15  1  0  0  0  0
 14 38  1  0  0  0  0
 15 16  1  0  0  0  0
 15 19  2  0  0  0  0
 16 17  2  0  0  0  0
 17 18  1  0  0  0  0
 19 20  1  0  0  0  0
 19 39  1  0  0  0  0
 20 40  1  0  0  0  0
M  END
