3mxf_24.pdb
  MOE2019           3D

 16 15  0  0  0  0  0  0  0  0999 V2000
   13.2430    9.0430    0.0000 C   0  0  0  0  0  0  0  0  0  0  0  0
   11.7460    9.1340    0.0000 C   0  0  0  0  0  0  0  0  0  0  0  0
   10.9180    7.8830    0.0000 O   0  0  0  0  0  0  0  0  0  0  0  0
    9.4210    7.9740    0.0000 C   0  0  0  0  0  0  0  0  0  0  0  0
    8.5930    6.7230    0.0000 C   0  0  0  0  0  0  0  0  0  0  0  0
    7.0960    6.8150    0.0000 O   0  0  0  0  0  0  0  0  0  0  0  0
    6.7500    5.9190    0.0000 H   0  0  0  0  0  0  0  0  0  0  0  0
   13.5240    8.4800   -0.8900 H   0  0  0  0  0  0  0  0  0  0  0  0
   13.5240    8.4800    0.8900 H   0  0  0  0  0  0  0  0  0  0  0  0
   13.7280   10.0190    0.0000 H   0  0  0  0  0  0  0  0  0  0  0  0
   11.4650    9.6970   -0.8900 H   0  0  0  0  0  0  0  0  0  0  0  0
   11.4650    9.6970    0.8900 H   0  0  0  0  0  0  0  0  0  0  0  0
    9.1400    8.5370    0.8900 H   0  0  0  0  0  0  0  0  0  0  0  0
    9.1400    8.5370   -0.8900 H   0  0  0  0  0  0  0  0  0  0  0  0
    8.8740    6.1600    0.8900 H   0  0  0  0  0  0  0  0  0  0  0  0
    8.8740    6.1600   -0.8900 H   0  0  0  0  0  0  0  0  0  0  0  0
  1  2  1  0  0  0  0
  1  8  1  0  0  0  0
  1  9  1  0  0  0  0
  1 10  1  0  0  0  0
  2  3  1  0  0  0  0
  2 11  1  0  0  0  0
  2 12  1  0  0  0  0
  3  4  1  0  0  0  0
  4  5  1  0  0  0  0
  4 13  1  0  0  0  0
  4 14  1  0  0  0  0
  5  6  1  0  0  0  0
  5 15  1  0  0  0  0
  5 16  1  0  0  0  0
  6  7  1  0  0  0  0
M  END
