3oni_1.pdb
  MOE2019           3D

 11 10  0  0  0  0  0  0  0  0999 V2000
   14.1370    3.0440    0.0000 C   0  0  0  0  0  0  0  0  0  0  0  0
   12.8390    2.2920    0.0000 C   0  0  0  0  0  0  0  0  0  0  0  0
   11.5390    3.0410    0.0000 C   0  0  0  0  0  0  0  0  0  0  0  0
   14.1360    3.6730    0.8900 H   0  0  0  0  0  0  0  0  0  0  0  0
   14.1360    3.6730   -0.8900 H   0  0  0  0  0  0  0  0  0  0  0  0
   15.0080    2.3880    0.0000 H   0  0  0  0  0  0  0  0  0  0  0  0
   12.8400    1.6630    0.8900 H   0  0  0  0  0  0  0  0  0  0  0  0
   12.8400    1.6630   -0.8900 H   0  0  0  0  0  0  0  0  0  0  0  0
   11.5380    3.6700   -0.8900 H   0  0  0  0  0  0  0  0  0  0  0  0
   11.5380    3.6700    0.8900 H   0  0  0  0  0  0  0  0  0  0  0  0
   10.6700    2.3830    0.0000 H   0  0  0  0  0  0  0  0  0  0  0  0
  1  2  1  0  0  0  0
  1  4  1  0  0  0  0
  1  5  1  0  0  0  0
  1  6  1  0  0  0  0
  2  3  1  0  0  0  0
  2  7  1  0  0  0  0
  2  8  1  0  0  0  0
  3  9  1  0  0  0  0
  3 10  1  0  0  0  0
  3 11  1  0  0  0  0
M  END
