3qqu_1.pdb
  MOE2019           3D

 15 14  0  0  0  0  0  0  0  0999 V2000
   -2.1170    3.6670    0.0000 O   0  0  0  0  0  0  0  0  0  0  0  0
   -1.3670    4.9660    0.0000 C   0  0  0  0  0  0  0  0  0  0  0  0
    0.1330    4.9660    0.0000 C   0  0  0  0  0  0  0  0  0  0  0  0
   -3.6170    3.6670    0.0000 C   0  0  0  0  0  0  0  0  0  0  0  0
   -4.3670    2.3680    0.0000 C   0  0  0  0  0  0  0  0  0  0  0  0
   -1.6820    5.5110    0.8900 H   0  0  0  0  0  0  0  0  0  0  0  0
   -1.6820    5.5110   -0.8900 H   0  0  0  0  0  0  0  0  0  0  0  0
    0.4480    4.4210   -0.8900 H   0  0  0  0  0  0  0  0  0  0  0  0
    0.5570    5.9700    0.0000 H   0  0  0  0  0  0  0  0  0  0  0  0
    0.4480    4.4210    0.8900 H   0  0  0  0  0  0  0  0  0  0  0  0
   -3.9320    4.2120   -0.8900 H   0  0  0  0  0  0  0  0  0  0  0  0
   -3.9320    4.2120    0.8900 H   0  0  0  0  0  0  0  0  0  0  0  0
   -4.0520    1.8230    0.8900 H   0  0  0  0  0  0  0  0  0  0  0  0
   -5.4490    2.5020    0.0000 H   0  0  0  0  0  0  0  0  0  0  0  0
   -4.0520    1.8230   -0.8900 H   0  0  0  0  0  0  0  0  0  0  0  0
  1  2  1  0  0  0  0
  1  4  1  0  0  0  0
  2  3  1  0  0  0  0
  2  6  1  0  0  0  0
  2  7  1  0  0  0  0
  3  8  1  0  0  0  0
  3  9  1  0  0  0  0
  3 10  1  0  0  0  0
  4  5  1  0  0  0  0
  4 11  1  0  0  0  0
  4 12  1  0  0  0  0
  5 13  1  0  0  0  0
  5 14  1  0  0  0  0
  5 15  1  0  0  0  0
M  END
