3ue4_8.pdb
  MOE2019           3D

 63 62  0  0  0  0  0  0  0  0999 V2000
   20.1530   -7.7730    0.0000 C   0  0  0  0  0  0  0  0  0  0  0  0
   21.4520   -8.5230    0.0000 C   0  0  0  0  0  0  0  0  0  0  0  0
   22.7510   -7.7730    0.0000 C   0  0  0  0  0  0  0  0  0  0  0  0
   24.0500   -8.5230    0.0000 C   0  0  0  0  0  0  0  0  0  0  0  0
   25.3490   -7.7730    0.0000 C   0  0  0  0  0  0  0  0  0  0  0  0
   26.6480   -8.5230    0.0000 C   0  0  0  0  0  0  0  0  0  0  0  0
   27.9470   -7.7730    0.0000 O   0  0  0  0  0  0  0  0  0  0  0  0
   29.2460   -8.5230    0.0000 C   0  0  0  0  0  0  0  0  0  0  0  0
   30.5450   -7.7730    0.0000 C   0  0  0  0  0  0  0  0  0  0  0  0
   31.8440   -8.5230    0.0000 O   0  0  0  0  0  0  0  0  0  0  0  0
   33.1430   -7.7730    0.0000 C   0  0  0  0  0  0  0  0  0  0  0  0
   34.4420   -8.5230    0.0000 C   0  0  0  0  0  0  0  0  0  0  0  0
   35.7420   -7.7730    0.0000 O   0  0  0  0  0  0  0  0  0  0  0  0
   37.0410   -8.5230    0.0000 C   0  0  0  0  0  0  0  0  0  0  0  0
   38.3400   -7.7730    0.0000 C   0  0  0  0  0  0  0  0  0  0  0  0
   39.6390   -8.5230    0.0000 O   0  0  0  0  0  0  0  0  0  0  0  0
   40.9380   -7.7730    0.0000 C   0  0  0  0  0  0  0  0  0  0  0  0
   42.2370   -8.5230    0.0000 C   0  0  0  0  0  0  0  0  0  0  0  0
   43.5360   -7.7730    0.0000 O   0  0  0  0  0  0  0  0  0  0  0  0
   44.8350   -8.5230    0.0000 C   0  0  0  0  0  0  0  0  0  0  0  0
   46.1340   -7.7730    0.0000 C   0  0  0  0  0  0  0  0  0  0  0  0
   47.4330   -8.5230    0.0000 O   0  0  0  0  0  0  0  0  0  0  0  0
   20.1530   -7.1440    0.8900 H   0  0  0  0  0  0  0  0  0  0  0  0
   20.1530   -7.1440   -0.8900 H   0  0  0  0  0  0  0  0  0  0  0  0
   19.2830   -8.4300    0.0000 H   0  0  0  0  0  0  0  0  0  0  0  0
   21.4520   -9.1520   -0.8900 H   0  0  0  0  0  0  0  0  0  0  0  0
   21.4520   -9.1520    0.8900 H   0  0  0  0  0  0  0  0  0  0  0  0
   22.7510   -7.1440    0.8900 H   0  0  0  0  0  0  0  0  0  0  0  0
   22.7510   -7.1440   -0.8900 H   0  0  0  0  0  0  0  0  0  0  0  0
   24.0500   -9.1520   -0.8900 H   0  0  0  0  0  0  0  0  0  0  0  0
   24.0500   -9.1520    0.8900 H   0  0  0  0  0  0  0  0  0  0  0  0
   25.3490   -7.1440    0.8900 H   0  0  0  0  0  0  0  0  0  0  0  0
   25.3490   -7.1440   -0.8900 H   0  0  0  0  0  0  0  0  0  0  0  0
   26.6480   -9.1520   -0.8900 H   0  0  0  0  0  0  0  0  0  0  0  0
   26.6480   -9.1520    0.8900 H   0  0  0  0  0  0  0  0  0  0  0  0
   29.2460   -9.1520   -0.8900 H   0  0  0  0  0  0  0  0  0  0  0  0
   29.2460   -9.1520    0.8900 H   0  0  0  0  0  0  0  0  0  0  0  0
   30.5450   -7.1440    0.8900 H   0  0  0  0  0  0  0  0  0  0  0  0
   30.5450   -7.1440   -0.8900 H   0  0  0  0  0  0  0  0  0  0  0  0
   33.1430   -7.1440    0.8900 H   0  0  0  0  0  0  0  0  0  0  0  0
   33.1430   -7.1440   -0.8900 H   0  0  0  0  0  0  0  0  0  0  0  0
   34.4420   -9.1520   -0.8900 H   0  0  0  0  0  0  0  0  0  0  0  0
   34.4420   -9.1520    0.8900 H   0  0  0  0  0  0  0  0  0  0  0  0
   37.0410   -9.1520   -0.8900 H   0  0  0  0  0  0  0  0  0  0  0  0
   37.0410   -9.1520    0.8900 H   0  0  0  0  0  0  0  0  0  0  0  0
   38.3400   -7.1440    0.8900 H   0  0  0  0  0  0  0  0  0  0  0  0
   38.3400   -7.1440   -0.8900 H   0  0  0  0  0  0  0  0  0  0  0  0
   40.9380   -7.1440    0.8900 H   0  0  0  0  0  0  0  0  0  0  0  0
   40.9380   -7.1440   -0.8900 H   0  0  0  0  0  0  0  0  0  0  0  0
   42.2370   -9.1520   -0.8900 H   0  0  0  0  0  0  0  0  0  0  0  0
   42.2370   -9.1520    0.8900 H   0  0  0  0  0  0  0  0  0  0  0  0
   44.8350   -9.1520   -0.8900 H   0  0  0  0  0  0  0  0  0  0  0  0
   44.8350   -9.1520    0.8900 H   0  0  0  0  0  0  0  0  0  0  0  0
   46.1340   -7.1440    0.8900 H   0  0  0  0  0  0  0  0  0  0  0  0
   46.1340   -7.1440   -0.8900 H   0  0  0  0  0  0  0  0  0  0  0  0
   48.7320   -7.7730    0.0000 C   0  0  0  0  0  0  0  0  0  0  0  0
   49.2770   -8.0880    0.8900 H   0  0  0  0  0  0  0  0  0  0  0  0
   49.2770   -8.0880   -0.8900 H   0  0  0  0  0  0  0  0  0  0  0  0
   48.7320   -6.2730    0.0000 C   0  0  0  0  0  0  0  0  0  0  0  0
   47.4330   -5.5230    0.0000 O   0  0  0  0  0  0  0  0  0  0  0  0
   50.0310   -5.5230    0.0000 N   0  0  0  0  0  0  0  0  0  0  0  0
   50.0310   -4.5130    0.0000 H   0  0  0  0  0  0  0  0  0  0  0  0
   50.9060   -6.0280    0.0000 H   0  0  0  0  0  0  0  0  0  0  0  0
  1  2  1  0  0  0  0
  1 23  1  0  0  0  0
  1 24  1  0  0  0  0
  1 25  1  0  0  0  0
  2  3  1  0  0  0  0
  2 26  1  0  0  0  0
  2 27  1  0  0  0  0
  3  4  1  0  0  0  0
  3 28  1  0  0  0  0
  3 29  1  0  0  0  0
  4  5  1  0  0  0  0
  4 30  1  0  0  0  0
  4 31  1  0  0  0  0
  5  6  1  0  0  0  0
  5 32  1  0  0  0  0
  5 33  1  0  0  0  0
  6  7  1  0  0  0  0
  6 34  1  0  0  0  0
  6 35  1  0  0  0  0
  7  8  1  0  0  0  0
  8  9  1  0  0  0  0
  8 36  1  0  0  0  0
  8 37  1  0  0  0  0
  9 10  1  0  0  0  0
  9 38  1  0  0  0  0
  9 39  1  0  0  0  0
 10 11  1  0  0  0  0
 11 12  1  0  0  0  0
 11 40  1  0  0  0  0
 11 41  1  0  0  0  0
 12 13  1  0  0  0  0
 12 42  1  0  0  0  0
 12 43  1  0  0  0  0
 13 14  1  0  0  0  0
 14 15  1  0  0  0  0
 14 44  1  0  0  0  0
 14 45  1  0  0  0  0
 15 16  1  0  0  0  0
 15 46  1  0  0  0  0
 15 47  1  0  0  0  0
 16 17  1  0  0  0  0
 17 18  1  0  0  0  0
 17 48  1  0  0  0  0
 17 49  1  0  0  0  0
 18 19  1  0  0  0  0
 18 50  1  0  0  0  0
 18 51  1  0  0  0  0
 19 20  1  0  0  0  0
 20 21  1  0  0  0  0
 20 52  1  0  0  0  0
 20 53  1  0  0  0  0
 21 22  1  0  0  0  0
 21 54  1  0  0  0  0
 21 55  1  0  0  0  0
 22 56  1  0  0  0  0
 56 57  1  0  0  0  0
 56 58  1  0  0  0  0
 56 59  1  0  0  0  0
 59 60  2  0  0  0  0
 59 61  1  0  0  0  0
 61 62  1  0  0  0  0
 61 63  1  0  0  0  0
M  END
