4bjx_2.pdb
  MOE2019           3D

 23 22  0  0  0  0  0  0  0  0999 V2000
    3.3590    9.4770    0.0000 C   0  0  0  0  0  0  0  0  0  0  0  0
    4.6580   10.2270    0.0000 C   0  0  0  0  0  0  0  0  0  0  0  0
    5.9570    9.4770    0.0000 O   0  0  0  0  0  0  0  0  0  0  0  0
    7.2560   10.2270    0.0000 C   0  0  0  0  0  0  0  0  0  0  0  0
    8.5550    9.4770    0.0000 C   0  0  0  0  0  0  0  0  0  0  0  0
    9.8540   10.2270    0.0000 O   0  0  0  0  0  0  0  0  0  0  0  0
   11.1530    9.4770    0.0000 C   0  0  0  0  0  0  0  0  0  0  0  0
   12.4520   10.2270    0.0000 C   0  0  0  0  0  0  0  0  0  0  0  0
   13.7510    9.4770    0.0000 O   0  0  0  0  0  0  0  0  0  0  0  0
   14.4600   10.1240    0.0000 H   0  0  0  0  0  0  0  0  0  0  0  0
    3.3590    8.8480    0.8900 H   0  0  0  0  0  0  0  0  0  0  0  0
    3.3590    8.8480   -0.8900 H   0  0  0  0  0  0  0  0  0  0  0  0
    2.4890   10.1340    0.0000 H   0  0  0  0  0  0  0  0  0  0  0  0
    4.6580   10.8560    0.8900 H   0  0  0  0  0  0  0  0  0  0  0  0
    4.6580   10.8560   -0.8900 H   0  0  0  0  0  0  0  0  0  0  0  0
    7.2560   10.8560   -0.8900 H   0  0  0  0  0  0  0  0  0  0  0  0
    7.2560   10.8560    0.8900 H   0  0  0  0  0  0  0  0  0  0  0  0
    8.5550    8.8480   -0.8900 H   0  0  0  0  0  0  0  0  0  0  0  0
    8.5550    8.8480    0.8900 H   0  0  0  0  0  0  0  0  0  0  0  0
   11.1530    8.8480    0.8900 H   0  0  0  0  0  0  0  0  0  0  0  0
   11.1530    8.8480   -0.8900 H   0  0  0  0  0  0  0  0  0  0  0  0
   12.4520   10.8560    0.8900 H   0  0  0  0  0  0  0  0  0  0  0  0
   12.4520   10.8560   -0.8900 H   0  0  0  0  0  0  0  0  0  0  0  0
  1  2  1  0  0  0  0
  1 11  1  0  0  0  0
  1 12  1  0  0  0  0
  1 13  1  0  0  0  0
  2  3  1  0  0  0  0
  2 14  1  0  0  0  0
  2 15  1  0  0  0  0
  3  4  1  0  0  0  0
  4  5  1  0  0  0  0
  4 16  1  0  0  0  0
  4 17  1  0  0  0  0
  5  6  1  0  0  0  0
  5 18  1  0  0  0  0
  5 19  1  0  0  0  0
  6  7  1  0  0  0  0
  7  8  1  0  0  0  0
  7 20  1  0  0  0  0
  7 21  1  0  0  0  0
  8  9  1  0  0  0  0
  8 22  1  0  0  0  0
  8 23  1  0  0  0  0
  9 10  1  0  0  0  0
M  END
