4ci3_2.pdb
  MOE2019           3D

 23 22  0  0  0  0  0  0  0  0999 V2000
   -1.8330   -3.9260    0.0000 O   0  0  0  0  0  0  0  0  0  0  0  0
   -0.8950   -4.1320    0.0000 H   0  0  0  0  0  0  0  0  0  0  0  0
   -2.5830   -5.2250    0.0000 C   0  0  0  0  0  0  0  0  0  0  0  0
   -4.0830   -5.2250    0.0000 C   0  0  0  0  0  0  0  0  0  0  0  0
   -4.8330   -3.9260    0.0000 O   0  0  0  0  0  0  0  0  0  0  0  0
   -6.3330   -3.9260    0.0000 C   0  0  0  0  0  0  0  0  0  0  0  0
   -7.0830   -2.6270    0.0000 C   0  0  0  0  0  0  0  0  0  0  0  0
   -8.5830   -2.6270    0.0000 O   0  0  0  0  0  0  0  0  0  0  0  0
   -9.3330   -1.3280    0.0000 C   0  0  0  0  0  0  0  0  0  0  0  0
  -10.8330   -1.3280    0.0000 C   0  0  0  0  0  0  0  0  0  0  0  0
   -2.2680   -5.7700   -0.8900 H   0  0  0  0  0  0  0  0  0  0  0  0
   -2.2680   -5.7700    0.8900 H   0  0  0  0  0  0  0  0  0  0  0  0
   -4.3980   -5.7700    0.8900 H   0  0  0  0  0  0  0  0  0  0  0  0
   -4.3980   -5.7700   -0.8900 H   0  0  0  0  0  0  0  0  0  0  0  0
   -6.6480   -4.4710   -0.8900 H   0  0  0  0  0  0  0  0  0  0  0  0
   -6.6480   -4.4710    0.8900 H   0  0  0  0  0  0  0  0  0  0  0  0
   -6.7680   -2.0820   -0.8900 H   0  0  0  0  0  0  0  0  0  0  0  0
   -6.7680   -2.0820    0.8900 H   0  0  0  0  0  0  0  0  0  0  0  0
   -9.0180   -0.7830    0.8900 H   0  0  0  0  0  0  0  0  0  0  0  0
   -9.0180   -0.7830   -0.8900 H   0  0  0  0  0  0  0  0  0  0  0  0
  -11.1480   -1.8730    0.8900 H   0  0  0  0  0  0  0  0  0  0  0  0
  -11.2570   -0.3240    0.0000 H   0  0  0  0  0  0  0  0  0  0  0  0
  -11.1480   -1.8730   -0.8900 H   0  0  0  0  0  0  0  0  0  0  0  0
  1  2  1  0  0  0  0
  1  3  1  0  0  0  0
  3  4  1  0  0  0  0
  3 11  1  0  0  0  0
  3 12  1  0  0  0  0
  4  5  1  0  0  0  0
  4 13  1  0  0  0  0
  4 14  1  0  0  0  0
  5  6  1  0  0  0  0
  6  7  1  0  0  0  0
  6 15  1  0  0  0  0
  6 16  1  0  0  0  0
  7  8  1  0  0  0  0
  7 17  1  0  0  0  0
  7 18  1  0  0  0  0
  8  9  1  0  0  0  0
  9 10  1  0  0  0  0
  9 19  1  0  0  0  0
  9 20  1  0  0  0  0
 10 21  1  0  0  0  0
 10 22  1  0  0  0  0
 10 23  1  0  0  0  0
M  END
