4ci3_14.pdb
  MOE2019           3D

 23 22  0  0  0  0  0  0  0  0999 V2000
    4.3740   -0.2760    0.0000 C   0  0  0  0  0  0  0  0  0  0  0  0
    5.6730    0.4740    0.0000 C   0  0  0  0  0  0  0  0  0  0  0  0
    6.9720   -0.2760    0.0000 C   0  0  0  0  0  0  0  0  0  0  0  0
    8.2710    0.4740    0.0000 C   0  0  0  0  0  0  0  0  0  0  0  0
    9.5700   -0.2760    0.0000 C   0  0  0  0  0  0  0  0  0  0  0  0
   10.8690    0.4740    0.0000 C   0  0  0  0  0  0  0  0  0  0  0  0
   12.1680   -0.2760    0.0000 C   0  0  0  0  0  0  0  0  0  0  0  0
    4.3740   -0.9050    0.8900 H   0  0  0  0  0  0  0  0  0  0  0  0
    4.3740   -0.9050   -0.8900 H   0  0  0  0  0  0  0  0  0  0  0  0
    3.5040    0.3810    0.0000 H   0  0  0  0  0  0  0  0  0  0  0  0
    5.6730    1.1030   -0.8900 H   0  0  0  0  0  0  0  0  0  0  0  0
    5.6730    1.1030    0.8900 H   0  0  0  0  0  0  0  0  0  0  0  0
    6.9720   -0.9050    0.8900 H   0  0  0  0  0  0  0  0  0  0  0  0
    6.9720   -0.9050   -0.8900 H   0  0  0  0  0  0  0  0  0  0  0  0
    8.2710    1.1030    0.8900 H   0  0  0  0  0  0  0  0  0  0  0  0
    8.2710    1.1030   -0.8900 H   0  0  0  0  0  0  0  0  0  0  0  0
    9.5700   -0.9050   -0.8900 H   0  0  0  0  0  0  0  0  0  0  0  0
    9.5700   -0.9050    0.8900 H   0  0  0  0  0  0  0  0  0  0  0  0
   10.8690    1.1030    0.8900 H   0  0  0  0  0  0  0  0  0  0  0  0
   10.8690    1.1030   -0.8900 H   0  0  0  0  0  0  0  0  0  0  0  0
   12.1680   -0.9050   -0.8900 H   0  0  0  0  0  0  0  0  0  0  0  0
   13.0380    0.3810    0.0000 H   0  0  0  0  0  0  0  0  0  0  0  0
   12.1680   -0.9050    0.8900 H   0  0  0  0  0  0  0  0  0  0  0  0
  1  2  1  0  0  0  0
  1  8  1  0  0  0  0
  1  9  1  0  0  0  0
  1 10  1  0  0  0  0
  2  3  1  0  0  0  0
  2 11  1  0  0  0  0
  2 12  1  0  0  0  0
  3  4  1  0  0  0  0
  3 13  1  0  0  0  0
  3 14  1  0  0  0  0
  4  5  1  0  0  0  0
  4 15  1  0  0  0  0
  4 16  1  0  0  0  0
  5  6  1  0  0  0  0
  5 17  1  0  0  0  0
  5 18  1  0  0  0  0
  6  7  1  0  0  0  0
  6 19  1  0  0  0  0
  6 20  1  0  0  0  0
  7 21  1  0  0  0  0
  7 22  1  0  0  0  0
  7 23  1  0  0  0  0
M  END
