4ci3_30.pdb
  MOE2019           3D

 33 32  0  0  0  0  0  0  0  0999 V2000
   -6.9090    2.5470    0.0000 C   0  0  0  0  0  0  0  0  0  0  0  0
   -5.6100    3.2970    0.0000 O   0  0  0  0  0  0  0  0  0  0  0  0
   -4.3110    2.5470    0.0000 C   0  0  0  0  0  0  0  0  0  0  0  0
   -3.0120    3.2970    0.0000 C   0  0  0  0  0  0  0  0  0  0  0  0
   -1.7130    2.5470    0.0000 O   0  0  0  0  0  0  0  0  0  0  0  0
   -0.4140    3.2970    0.0000 C   0  0  0  0  0  0  0  0  0  0  0  0
    0.8850    2.5470    0.0000 C   0  0  0  0  0  0  0  0  0  0  0  0
    2.1840    3.2970    0.0000 O   0  0  0  0  0  0  0  0  0  0  0  0
    3.4830    2.5470    0.0000 C   0  0  0  0  0  0  0  0  0  0  0  0
    4.7820    3.2970    0.0000 C   0  0  0  0  0  0  0  0  0  0  0  0
    4.7820    4.7970    0.0000 O   0  0  0  0  0  0  0  0  0  0  0  0
    6.0810    2.5470    0.0000 N   0  0  0  0  0  0  0  0  0  0  0  0
    7.3800    3.2970    0.0000 C   0  0  0  0  0  0  0  0  0  0  0  0
    8.6790    2.5470    0.0000 C   0  0  0  0  0  0  0  0  0  0  0  0
   -6.9090    1.9180   -0.8900 H   0  0  0  0  0  0  0  0  0  0  0  0
   -6.9090    1.9180    0.8900 H   0  0  0  0  0  0  0  0  0  0  0  0
   -7.7790    3.2040    0.0000 H   0  0  0  0  0  0  0  0  0  0  0  0
   -4.3110    1.9180    0.8900 H   0  0  0  0  0  0  0  0  0  0  0  0
   -4.3110    1.9180   -0.8900 H   0  0  0  0  0  0  0  0  0  0  0  0
   -3.0120    3.9260    0.8900 H   0  0  0  0  0  0  0  0  0  0  0  0
   -3.0120    3.9260   -0.8900 H   0  0  0  0  0  0  0  0  0  0  0  0
   -0.4140    3.9260   -0.8900 H   0  0  0  0  0  0  0  0  0  0  0  0
   -0.4140    3.9260    0.8900 H   0  0  0  0  0  0  0  0  0  0  0  0
    0.8850    1.9180   -0.8900 H   0  0  0  0  0  0  0  0  0  0  0  0
    0.8850    1.9180    0.8900 H   0  0  0  0  0  0  0  0  0  0  0  0
    3.4830    1.9180    0.8900 H   0  0  0  0  0  0  0  0  0  0  0  0
    3.4830    1.9180   -0.8900 H   0  0  0  0  0  0  0  0  0  0  0  0
    6.0810    1.5370    0.0000 H   0  0  0  0  0  0  0  0  0  0  0  0
    7.3800    3.9260   -0.8900 H   0  0  0  0  0  0  0  0  0  0  0  0
    7.3800    3.9260    0.8900 H   0  0  0  0  0  0  0  0  0  0  0  0
    8.6790    1.9180   -0.8900 H   0  0  0  0  0  0  0  0  0  0  0  0
    9.5490    3.2040    0.0000 H   0  0  0  0  0  0  0  0  0  0  0  0
    8.6790    1.9180    0.8900 H   0  0  0  0  0  0  0  0  0  0  0  0
  1  2  1  0  0  0  0
  1 15  1  0  0  0  0
  1 16  1  0  0  0  0
  1 17  1  0  0  0  0
  2  3  1  0  0  0  0
  3  4  1  0  0  0  0
  3 18  1  0  0  0  0
  3 19  1  0  0  0  0
  4  5  1  0  0  0  0
  4 20  1  0  0  0  0
  4 21  1  0  0  0  0
  5  6  1  0  0  0  0
  6  7  1  0  0  0  0
  6 22  1  0  0  0  0
  6 23  1  0  0  0  0
  7  8  1  0  0  0  0
  7 24  1  0  0  0  0
  7 25  1  0  0  0  0
  8  9  1  0  0  0  0
  9 10  1  0  0  0  0
  9 26  1  0  0  0  0
  9 27  1  0  0  0  0
 10 11  2  0  0  0  0
 10 12  1  0  0  0  0
 12 13  1  0  0  0  0
 12 28  1  0  0  0  0
 13 14  1  0  0  0  0
 13 29  1  0  0  0  0
 13 30  1  0  0  0  0
 14 31  1  0  0  0  0
 14 32  1  0  0  0  0
 14 33  1  0  0  0  0
M  END
