4ci3_11.pdb
  MOE2019           3D

 34 33  0  0  0  0  0  0  0  0999 V2000
    3.9170   -6.7850    0.0000 O   0  0  0  0  0  0  0  0  0  0  0  0
    4.6670   -5.4860    0.0000 C   0  0  0  0  0  0  0  0  0  0  0  0
    6.1670   -5.4860    0.0000 C   0  0  0  0  0  0  0  0  0  0  0  0
    6.9170   -4.1870    0.0000 C   0  0  0  0  0  0  0  0  0  0  0  0
    2.4170   -6.7850    0.0000 C   0  0  0  0  0  0  0  0  0  0  0  0
    1.6670   -8.0840    0.0000 C   0  0  0  0  0  0  0  0  0  0  0  0
    0.1670   -8.0840    0.0000 C   0  0  0  0  0  0  0  0  0  0  0  0
   -0.5830   -6.7850    0.0000 C   0  0  0  0  0  0  0  0  0  0  0  0
   -2.0830   -6.7850    0.0000 O   0  0  0  0  0  0  0  0  0  0  0  0
   -2.8330   -5.4860    0.0000 C   0  0  0  0  0  0  0  0  0  0  0  0
   -4.3330   -5.4860    0.0000 C   0  0  0  0  0  0  0  0  0  0  0  0
   -5.0830   -4.1870    0.0000 C   0  0  0  0  0  0  0  0  0  0  0  0
    4.3520   -4.9410    0.8900 H   0  0  0  0  0  0  0  0  0  0  0  0
    4.3520   -4.9410   -0.8900 H   0  0  0  0  0  0  0  0  0  0  0  0
    6.4820   -6.0310   -0.8900 H   0  0  0  0  0  0  0  0  0  0  0  0
    6.4820   -6.0310    0.8900 H   0  0  0  0  0  0  0  0  0  0  0  0
    6.6020   -3.6420    0.8900 H   0  0  0  0  0  0  0  0  0  0  0  0
    7.9990   -4.3210    0.0000 H   0  0  0  0  0  0  0  0  0  0  0  0
    6.6020   -3.6420   -0.8900 H   0  0  0  0  0  0  0  0  0  0  0  0
    2.1020   -6.2400   -0.8900 H   0  0  0  0  0  0  0  0  0  0  0  0
    2.1020   -6.2400    0.8900 H   0  0  0  0  0  0  0  0  0  0  0  0
    1.9820   -8.6290    0.8900 H   0  0  0  0  0  0  0  0  0  0  0  0
    1.9820   -8.6290   -0.8900 H   0  0  0  0  0  0  0  0  0  0  0  0
   -0.1480   -8.6290    0.8900 H   0  0  0  0  0  0  0  0  0  0  0  0
   -0.1480   -8.6290   -0.8900 H   0  0  0  0  0  0  0  0  0  0  0  0
   -0.2680   -6.2400   -0.8900 H   0  0  0  0  0  0  0  0  0  0  0  0
   -0.2680   -6.2400    0.8900 H   0  0  0  0  0  0  0  0  0  0  0  0
   -2.5180   -4.9410   -0.8900 H   0  0  0  0  0  0  0  0  0  0  0  0
   -2.5180   -4.9410    0.8900 H   0  0  0  0  0  0  0  0  0  0  0  0
   -4.6480   -6.0310    0.8900 H   0  0  0  0  0  0  0  0  0  0  0  0
   -4.6480   -6.0310   -0.8900 H   0  0  0  0  0  0  0  0  0  0  0  0
   -4.7680   -3.6420   -0.8900 H   0  0  0  0  0  0  0  0  0  0  0  0
   -6.1650   -4.3210    0.0000 H   0  0  0  0  0  0  0  0  0  0  0  0
   -4.7680   -3.6420    0.8900 H   0  0  0  0  0  0  0  0  0  0  0  0
  1  2  1  0  0  0  0
  1  5  1  0  0  0  0
  2  3  1  0  0  0  0
  2 13  1  0  0  0  0
  2 14  1  0  0  0  0
  3  4  1  0  0  0  0
  3 15  1  0  0  0  0
  3 16  1  0  0  0  0
  4 17  1  0  0  0  0
  4 18  1  0  0  0  0
  4 19  1  0  0  0  0
  5  6  1  0  0  0  0
  5 20  1  0  0  0  0
  5 21  1  0  0  0  0
  6  7  1  0  0  0  0
  6 22  1  0  0  0  0
  6 23  1  0  0  0  0
  7  8  1  0  0  0  0
  7 24  1  0  0  0  0
  7 25  1  0  0  0  0
  8  9  1  0  0  0  0
  8 26  1  0  0  0  0
  8 27  1  0  0  0  0
  9 10  1  0  0  0  0
 10 11  1  0  0  0  0
 10 28  1  0  0  0  0
 10 29  1  0  0  0  0
 11 12  1  0  0  0  0
 11 30  1  0  0  0  0
 11 31  1  0  0  0  0
 12 32  1  0  0  0  0
 12 33  1  0  0  0  0
 12 34  1  0  0  0  0
M  END
