4ci3_8.pdb
  MOE2019           3D

 72 71  0  0  0  0  0  0  0  0999 V2000
   -8.4350   14.6530    0.0000 C   0  0  0  0  0  0  0  0  0  0  0  0
   -7.1360   13.9030    0.0000 C   0  0  0  0  0  0  0  0  0  0  0  0
   -5.8370   14.6530    0.0000 C   0  0  0  0  0  0  0  0  0  0  0  0
   -4.5380   13.9030    0.0000 C   0  0  0  0  0  0  0  0  0  0  0  0
   -3.2390   14.6530    0.0000 O   0  0  0  0  0  0  0  0  0  0  0  0
   -1.9400   13.9030    0.0000 C   0  0  0  0  0  0  0  0  0  0  0  0
   -0.6410   14.6530    0.0000 C   0  0  0  0  0  0  0  0  0  0  0  0
    0.6580   13.9030    0.0000 C   0  0  0  0  0  0  0  0  0  0  0  0
    1.9570   14.6530    0.0000 C   0  0  0  0  0  0  0  0  0  0  0  0
    3.2560   13.9030    0.0000 O   0  0  0  0  0  0  0  0  0  0  0  0
    4.5550   14.6530    0.0000 C   0  0  0  0  0  0  0  0  0  0  0  0
    5.8540   13.9030    0.0000 C   0  0  0  0  0  0  0  0  0  0  0  0
    7.1530   14.6530    0.0000 C   0  0  0  0  0  0  0  0  0  0  0  0
    8.4520   13.9030    0.0000 C   0  0  0  0  0  0  0  0  0  0  0  0
    9.7510   14.6530    0.0000 O   0  0  0  0  0  0  0  0  0  0  0  0
   11.0500   13.9030    0.0000 C   0  0  0  0  0  0  0  0  0  0  0  0
   12.3490   14.6530    0.0000 C   0  0  0  0  0  0  0  0  0  0  0  0
   13.6480   13.9030    0.0000 C   0  0  0  0  0  0  0  0  0  0  0  0
   14.9470   14.6530    0.0000 C   0  0  0  0  0  0  0  0  0  0  0  0
   16.2460   13.9030    0.0000 O   0  0  0  0  0  0  0  0  0  0  0  0
   17.5450   14.6530    0.0000 C   0  0  0  0  0  0  0  0  0  0  0  0
   18.8440   13.9030    0.0000 C   0  0  0  0  0  0  0  0  0  0  0  0
   20.1430   14.6530    0.0000 C   0  0  0  0  0  0  0  0  0  0  0  0
   21.4430   13.9030    0.0000 C   0  0  0  0  0  0  0  0  0  0  0  0
   22.7420   14.6530    0.0000 C   0  0  0  0  0  0  0  0  0  0  0  0
   24.0410   13.9030    0.0000 C   0  0  0  0  0  0  0  0  0  0  0  0
   -8.4350   15.2820   -0.8900 H   0  0  0  0  0  0  0  0  0  0  0  0
   -8.4350   15.2820    0.8900 H   0  0  0  0  0  0  0  0  0  0  0  0
   -9.3050   13.9960    0.0000 H   0  0  0  0  0  0  0  0  0  0  0  0
   -7.1360   13.2740   -0.8900 H   0  0  0  0  0  0  0  0  0  0  0  0
   -7.1360   13.2740    0.8900 H   0  0  0  0  0  0  0  0  0  0  0  0
   -5.8370   15.2820    0.8900 H   0  0  0  0  0  0  0  0  0  0  0  0
   -5.8370   15.2820   -0.8900 H   0  0  0  0  0  0  0  0  0  0  0  0
   -4.5380   13.2740   -0.8900 H   0  0  0  0  0  0  0  0  0  0  0  0
   -4.5380   13.2740    0.8900 H   0  0  0  0  0  0  0  0  0  0  0  0
   -1.9400   13.2740    0.8900 H   0  0  0  0  0  0  0  0  0  0  0  0
   -1.9400   13.2740   -0.8900 H   0  0  0  0  0  0  0  0  0  0  0  0
   -0.6410   15.2820   -0.8900 H   0  0  0  0  0  0  0  0  0  0  0  0
   -0.6410   15.2820    0.8900 H   0  0  0  0  0  0  0  0  0  0  0  0
    0.6580   13.2740   -0.8900 H   0  0  0  0  0  0  0  0  0  0  0  0
    0.6580   13.2740    0.8900 H   0  0  0  0  0  0  0  0  0  0  0  0
    1.9570   15.2820    0.8900 H   0  0  0  0  0  0  0  0  0  0  0  0
    1.9570   15.2820   -0.8900 H   0  0  0  0  0  0  0  0  0  0  0  0
    4.5550   15.2820   -0.8900 H   0  0  0  0  0  0  0  0  0  0  0  0
    4.5550   15.2820    0.8900 H   0  0  0  0  0  0  0  0  0  0  0  0
    5.8540   13.2740    0.8900 H   0  0  0  0  0  0  0  0  0  0  0  0
    5.8540   13.2740   -0.8900 H   0  0  0  0  0  0  0  0  0  0  0  0
    7.1530   15.2820    0.8900 H   0  0  0  0  0  0  0  0  0  0  0  0
    7.1530   15.2820   -0.8900 H   0  0  0  0  0  0  0  0  0  0  0  0
    8.4520   13.2740   -0.8900 H   0  0  0  0  0  0  0  0  0  0  0  0
    8.4520   13.2740    0.8900 H   0  0  0  0  0  0  0  0  0  0  0  0
   11.0500   13.2740    0.8900 H   0  0  0  0  0  0  0  0  0  0  0  0
   11.0500   13.2740   -0.8900 H   0  0  0  0  0  0  0  0  0  0  0  0
   12.3490   15.2820   -0.8900 H   0  0  0  0  0  0  0  0  0  0  0  0
   12.3490   15.2820    0.8900 H   0  0  0  0  0  0  0  0  0  0  0  0
   13.6480   13.2740   -0.8900 H   0  0  0  0  0  0  0  0  0  0  0  0
   13.6480   13.2740    0.8900 H   0  0  0  0  0  0  0  0  0  0  0  0
   14.9470   15.2820    0.8900 H   0  0  0  0  0  0  0  0  0  0  0  0
   14.9470   15.2820   -0.8900 H   0  0  0  0  0  0  0  0  0  0  0  0
   17.5450   15.2820   -0.8900 H   0  0  0  0  0  0  0  0  0  0  0  0
   17.5450   15.2820    0.8900 H   0  0  0  0  0  0  0  0  0  0  0  0
   18.8440   13.2740    0.8900 H   0  0  0  0  0  0  0  0  0  0  0  0
   18.8440   13.2740   -0.8900 H   0  0  0  0  0  0  0  0  0  0  0  0
   20.1430   15.2820   -0.8900 H   0  0  0  0  0  0  0  0  0  0  0  0
   20.1430   15.2820    0.8900 H   0  0  0  0  0  0  0  0  0  0  0  0
   21.4430   13.2740   -0.8900 H   0  0  0  0  0  0  0  0  0  0  0  0
   21.4430   13.2740    0.8900 H   0  0  0  0  0  0  0  0  0  0  0  0
   22.7420   15.2820    0.8900 H   0  0  0  0  0  0  0  0  0  0  0  0
   22.7420   15.2820   -0.8900 H   0  0  0  0  0  0  0  0  0  0  0  0
   24.0410   13.2740   -0.8900 H   0  0  0  0  0  0  0  0  0  0  0  0
   24.9110   14.5600    0.0000 H   0  0  0  0  0  0  0  0  0  0  0  0
   24.0410   13.2740    0.8900 H   0  0  0  0  0  0  0  0  0  0  0  0
  1  2  1  0  0  0  0
  1 27  1  0  0  0  0
  1 28  1  0  0  0  0
  1 29  1  0  0  0  0
  2  3  1  0  0  0  0
  2 30  1  0  0  0  0
  2 31  1  0  0  0  0
  3  4  1  0  0  0  0
  3 32  1  0  0  0  0
  3 33  1  0  0  0  0
  4  5  1  0  0  0  0
  4 34  1  0  0  0  0
  4 35  1  0  0  0  0
  5  6  1  0  0  0  0
  6  7  1  0  0  0  0
  6 36  1  0  0  0  0
  6 37  1  0  0  0  0
  7  8  1  0  0  0  0
  7 38  1  0  0  0  0
  7 39  1  0  0  0  0
  8  9  1  0  0  0  0
  8 40  1  0  0  0  0
  8 41  1  0  0  0  0
  9 10  1  0  0  0  0
  9 42  1  0  0  0  0
  9 43  1  0  0  0  0
 10 11  1  0  0  0  0
 11 12  1  0  0  0  0
 11 44  1  0  0  0  0
 11 45  1  0  0  0  0
 12 13  1  0  0  0  0
 12 46  1  0  0  0  0
 12 47  1  0  0  0  0
 13 14  1  0  0  0  0
 13 48  1  0  0  0  0
 13 49  1  0  0  0  0
 14 15  1  0  0  0  0
 14 50  1  0  0  0  0
 14 51  1  0  0  0  0
 15 16  1  0  0  0  0
 16 17  1  0  0  0  0
 16 52  1  0  0  0  0
 16 53  1  0  0  0  0
 17 18  1  0  0  0  0
 17 54  1  0  0  0  0
 17 55  1  0  0  0  0
 18 19  1  0  0  0  0
 18 56  1  0  0  0  0
 18 57  1  0  0  0  0
 19 20  1  0  0  0  0
 19 58  1  0  0  0  0
 19 59  1  0  0  0  0
 20 21  1  0  0  0  0
 21 22  1  0  0  0  0
 21 60  1  0  0  0  0
 21 61  1  0  0  0  0
 22 23  1  0  0  0  0
 22 62  1  0  0  0  0
 22 63  1  0  0  0  0
 23 24  1  0  0  0  0
 23 64  1  0  0  0  0
 23 65  1  0  0  0  0
 24 25  1  0  0  0  0
 24 66  1  0  0  0  0
 24 67  1  0  0  0  0
 25 26  1  0  0  0  0
 25 68  1  0  0  0  0
 25 69  1  0  0  0  0
 26 70  1  0  0  0  0
 26 71  1  0  0  0  0
 26 72  1  0  0  0  0
M  END
