4ekl_1.pdb
  MOE2019           3D

 29 28  0  0  0  0  0  0  0  0999 V2000
    5.7900   -5.3180    0.0000 C   0  0  0  0  0  0  0  0  0  0  0  0
    6.5400   -6.6170    0.0000 C   0  0  0  0  0  0  0  0  0  0  0  0
    8.0400   -6.6170    0.0000 C   0  0  0  0  0  0  0  0  0  0  0  0
    8.7900   -7.9160    0.0000 C   0  0  0  0  0  0  0  0  0  0  0  0
   10.2900   -7.9160    0.0000 C   0  0  0  0  0  0  0  0  0  0  0  0
   11.0400   -9.2150    0.0000 C   0  0  0  0  0  0  0  0  0  0  0  0
   12.5400   -9.2150    0.0000 C   0  0  0  0  0  0  0  0  0  0  0  0
   13.2900  -10.5140    0.0000 C   0  0  0  0  0  0  0  0  0  0  0  0
   14.7900  -10.5140    0.0000 C   0  0  0  0  0  0  0  0  0  0  0  0
    6.1050   -4.7730   -0.8900 H   0  0  0  0  0  0  0  0  0  0  0  0
    6.1050   -4.7730    0.8900 H   0  0  0  0  0  0  0  0  0  0  0  0
    4.7080   -5.4520    0.0000 H   0  0  0  0  0  0  0  0  0  0  0  0
    6.2250   -7.1620    0.8900 H   0  0  0  0  0  0  0  0  0  0  0  0
    6.2250   -7.1620   -0.8900 H   0  0  0  0  0  0  0  0  0  0  0  0
    8.3550   -6.0720   -0.8900 H   0  0  0  0  0  0  0  0  0  0  0  0
    8.3550   -6.0720    0.8900 H   0  0  0  0  0  0  0  0  0  0  0  0
    8.4750   -8.4610    0.8900 H   0  0  0  0  0  0  0  0  0  0  0  0
    8.4750   -8.4610   -0.8900 H   0  0  0  0  0  0  0  0  0  0  0  0
   10.6050   -7.3710   -0.8900 H   0  0  0  0  0  0  0  0  0  0  0  0
   10.6050   -7.3710    0.8900 H   0  0  0  0  0  0  0  0  0  0  0  0
   10.7250   -9.7600   -0.8900 H   0  0  0  0  0  0  0  0  0  0  0  0
   10.7250   -9.7600    0.8900 H   0  0  0  0  0  0  0  0  0  0  0  0
   12.8550   -8.6700    0.8900 H   0  0  0  0  0  0  0  0  0  0  0  0
   12.8550   -8.6700   -0.8900 H   0  0  0  0  0  0  0  0  0  0  0  0
   12.9750  -11.0590   -0.8900 H   0  0  0  0  0  0  0  0  0  0  0  0
   12.9750  -11.0590    0.8900 H   0  0  0  0  0  0  0  0  0  0  0  0
   15.1050   -9.9690    0.8900 H   0  0  0  0  0  0  0  0  0  0  0  0
   15.1050   -9.9690   -0.8900 H   0  0  0  0  0  0  0  0  0  0  0  0
   15.2140  -11.5180    0.0000 H   0  0  0  0  0  0  0  0  0  0  0  0
  1  2  1  0  0  0  0
  1 10  1  0  0  0  0
  1 11  1  0  0  0  0
  1 12  1  0  0  0  0
  2  3  1  0  0  0  0
  2 13  1  0  0  0  0
  2 14  1  0  0  0  0
  3  4  1  0  0  0  0
  3 15  1  0  0  0  0
  3 16  1  0  0  0  0
  4  5  1  0  0  0  0
  4 17  1  0  0  0  0
  4 18  1  0  0  0  0
  5  6  1  0  0  0  0
  5 19  1  0  0  0  0
  5 20  1  0  0  0  0
  6  7  1  0  0  0  0
  6 21  1  0  0  0  0
  6 22  1  0  0  0  0
  7  8  1  0  0  0  0
  7 23  1  0  0  0  0
  7 24  1  0  0  0  0
  8  9  1  0  0  0  0
  8 25  1  0  0  0  0
  8 26  1  0  0  0  0
  9 27  1  0  0  0  0
  9 28  1  0  0  0  0
  9 29  1  0  0  0  0
M  END
