4im0_6.pdb
  MOE2019           3D

 29 28  0  0  0  0  0  0  0  0999 V2000
   25.0410   -9.4940    0.0000 O   0  0  0  0  0  0  0  0  0  0  0  0
   25.0540  -10.0530    0.7800 H   0  0  0  0  0  0  0  0  0  0  0  0
   23.7420   -8.7440    0.0000 C   0  0  0  0  0  0  0  0  0  0  0  0
   22.4430   -9.4940    0.0000 C   0  0  0  0  0  0  0  0  0  0  0  0
   21.1440   -8.7440    0.0000 C   0  0  0  0  0  0  0  0  0  0  0  0
   19.8450   -9.4940    0.0000 C   0  0  0  0  0  0  0  0  0  0  0  0
   18.5460   -8.7440    0.0000 C   0  0  0  0  0  0  0  0  0  0  0  0
   17.2470   -9.4940    0.0000 O   0  0  0  0  0  0  0  0  0  0  0  0
   15.9480   -8.7440    0.0000 C   0  0  0  0  0  0  0  0  0  0  0  0
   14.6490   -9.4940    0.0000 C   0  0  0  0  0  0  0  0  0  0  0  0
   13.3500   -8.7440    0.0000 C   0  0  0  0  0  0  0  0  0  0  0  0
   12.0510   -9.4940    0.0000 O   0  0  0  0  0  0  0  0  0  0  0  0
   11.3420   -8.8470    0.0000 H   0  0  0  0  0  0  0  0  0  0  0  0
   23.7420   -8.1150    0.8900 H   0  0  0  0  0  0  0  0  0  0  0  0
   23.7420   -8.1150   -0.8900 H   0  0  0  0  0  0  0  0  0  0  0  0
   22.4430  -10.1230   -0.8900 H   0  0  0  0  0  0  0  0  0  0  0  0
   22.4430  -10.1230    0.8900 H   0  0  0  0  0  0  0  0  0  0  0  0
   21.1440   -8.1150    0.8900 H   0  0  0  0  0  0  0  0  0  0  0  0
   21.1440   -8.1150   -0.8900 H   0  0  0  0  0  0  0  0  0  0  0  0
   19.8450  -10.1230    0.8900 H   0  0  0  0  0  0  0  0  0  0  0  0
   19.8450  -10.1230   -0.8900 H   0  0  0  0  0  0  0  0  0  0  0  0
   18.5460   -8.1150   -0.8900 H   0  0  0  0  0  0  0  0  0  0  0  0
   18.5460   -8.1150    0.8900 H   0  0  0  0  0  0  0  0  0  0  0  0
   15.9480   -8.1150    0.8900 H   0  0  0  0  0  0  0  0  0  0  0  0
   15.9480   -8.1150   -0.8900 H   0  0  0  0  0  0  0  0  0  0  0  0
   14.6490  -10.1230    0.8900 H   0  0  0  0  0  0  0  0  0  0  0  0
   14.6490  -10.1230   -0.8900 H   0  0  0  0  0  0  0  0  0  0  0  0
   13.3500   -8.1150   -0.8900 H   0  0  0  0  0  0  0  0  0  0  0  0
   13.3500   -8.1150    0.8900 H   0  0  0  0  0  0  0  0  0  0  0  0
  1  2  1  0  0  0  0
  1  3  1  0  0  0  0
  3  4  1  0  0  0  0
  3 14  1  0  0  0  0
  3 15  1  0  0  0  0
  4  5  1  0  0  0  0
  4 16  1  0  0  0  0
  4 17  1  0  0  0  0
  5  6  1  0  0  0  0
  5 18  1  0  0  0  0
  5 19  1  0  0  0  0
  6  7  1  0  0  0  0
  6 20  1  0  0  0  0
  6 21  1  0  0  0  0
  7  8  1  0  0  0  0
  7 22  1  0  0  0  0
  7 23  1  0  0  0  0
  8  9  1  0  0  0  0
  9 10  1  0  0  0  0
  9 24  1  0  0  0  0
  9 25  1  0  0  0  0
 10 11  1  0  0  0  0
 10 26  1  0  0  0  0
 10 27  1  0  0  0  0
 11 12  1  0  0  0  0
 11 28  1  0  0  0  0
 11 29  1  0  0  0  0
 12 13  1  0  0  0  0
M  END
