4im0_1.pdb
  MOE2019           3D

 16 15  0  0  0  0  0  0  0  0999 V2000
   16.7670    5.2730    0.0000 O   0  0  0  0  0  0  0  0  0  0  0  0
   16.4980    4.7830    0.7800 H   0  0  0  0  0  0  0  0  0  0  0  0
   16.0170    6.5720    0.0000 C   0  0  0  0  0  0  0  0  0  0  0  0
   14.5170    6.5720    0.0000 C   0  0  0  0  0  0  0  0  0  0  0  0
   13.7670    7.8710    0.0000 C   0  0  0  0  0  0  0  0  0  0  0  0
   12.2670    7.8710    0.0000 C   0  0  0  0  0  0  0  0  0  0  0  0
   11.5170    9.1700    0.0000 O   0  0  0  0  0  0  0  0  0  0  0  0
   10.5790    8.9640    0.0000 H   0  0  0  0  0  0  0  0  0  0  0  0
   16.3320    7.1170    0.8900 H   0  0  0  0  0  0  0  0  0  0  0  0
   16.3320    7.1170   -0.8900 H   0  0  0  0  0  0  0  0  0  0  0  0
   14.2020    6.0270   -0.8900 H   0  0  0  0  0  0  0  0  0  0  0  0
   14.2020    6.0270    0.8900 H   0  0  0  0  0  0  0  0  0  0  0  0
   14.0820    8.4160   -0.8900 H   0  0  0  0  0  0  0  0  0  0  0  0
   14.0820    8.4160    0.8900 H   0  0  0  0  0  0  0  0  0  0  0  0
   11.9520    7.3260    0.8900 H   0  0  0  0  0  0  0  0  0  0  0  0
   11.9520    7.3260   -0.8900 H   0  0  0  0  0  0  0  0  0  0  0  0
  1  2  1  0  0  0  0
  1  3  1  0  0  0  0
  3  4  1  0  0  0  0
  3  9  1  0  0  0  0
  3 10  1  0  0  0  0
  4  5  1  0  0  0  0
  4 11  1  0  0  0  0
  4 12  1  0  0  0  0
  5  6  1  0  0  0  0
  5 13  1  0  0  0  0
  5 14  1  0  0  0  0
  6  7  1  0  0  0  0
  6 15  1  0  0  0  0
  6 16  1  0  0  0  0
  7  8  1  0  0  0  0
M  END
