4im0_23.pdb
  MOE2019           3D

 36 35  0  0  0  0  0  0  0  0999 V2000
  -15.0490    7.0320    0.0000 O   0  0  0  0  0  0  0  0  0  0  0  0
  -15.7580    6.3850    0.0000 H   0  0  0  0  0  0  0  0  0  0  0  0
  -13.7500    6.2820    0.0000 C   0  0  0  0  0  0  0  0  0  0  0  0
  -12.4510    7.0320    0.0000 C   0  0  0  0  0  0  0  0  0  0  0  0
  -11.1520    6.2820    0.0000 C   0  0  0  0  0  0  0  0  0  0  0  0
   -9.8530    7.0320    0.0000 O   0  0  0  0  0  0  0  0  0  0  0  0
   -8.5530    6.2820    0.0000 C   0  0  0  0  0  0  0  0  0  0  0  0
   -7.2540    7.0320    0.0000 C   0  0  0  0  0  0  0  0  0  0  0  0
   -5.9550    6.2820    0.0000 C   0  0  0  0  0  0  0  0  0  0  0  0
   -4.6560    7.0320    0.0000 C   0  0  0  0  0  0  0  0  0  0  0  0
   -3.3570    6.2820    0.0000 O   0  0  0  0  0  0  0  0  0  0  0  0
   -2.0580    7.0320    0.0000 C   0  0  0  0  0  0  0  0  0  0  0  0
   -0.7590    6.2820    0.0000 C   0  0  0  0  0  0  0  0  0  0  0  0
    0.5400    7.0320    0.0000 C   0  0  0  0  0  0  0  0  0  0  0  0
    1.8390    6.2820    0.0000 O   0  0  0  0  0  0  0  0  0  0  0  0
    1.8520    5.7230    0.7800 H   0  0  0  0  0  0  0  0  0  0  0  0
  -13.7500    5.6530    0.8900 H   0  0  0  0  0  0  0  0  0  0  0  0
  -13.7500    5.6530   -0.8900 H   0  0  0  0  0  0  0  0  0  0  0  0
  -12.4510    7.6610   -0.8900 H   0  0  0  0  0  0  0  0  0  0  0  0
  -12.4510    7.6610    0.8900 H   0  0  0  0  0  0  0  0  0  0  0  0
  -11.1520    5.6530   -0.8900 H   0  0  0  0  0  0  0  0  0  0  0  0
  -11.1520    5.6530    0.8900 H   0  0  0  0  0  0  0  0  0  0  0  0
   -8.5530    5.6530    0.8900 H   0  0  0  0  0  0  0  0  0  0  0  0
   -8.5530    5.6530   -0.8900 H   0  0  0  0  0  0  0  0  0  0  0  0
   -7.2540    7.6610   -0.8900 H   0  0  0  0  0  0  0  0  0  0  0  0
   -7.2540    7.6610    0.8900 H   0  0  0  0  0  0  0  0  0  0  0  0
   -5.9550    5.6530   -0.8900 H   0  0  0  0  0  0  0  0  0  0  0  0
   -5.9550    5.6530    0.8900 H   0  0  0  0  0  0  0  0  0  0  0  0
   -4.6560    7.6610    0.8900 H   0  0  0  0  0  0  0  0  0  0  0  0
   -4.6560    7.6610   -0.8900 H   0  0  0  0  0  0  0  0  0  0  0  0
   -2.0580    7.6610   -0.8900 H   0  0  0  0  0  0  0  0  0  0  0  0
   -2.0580    7.6610    0.8900 H   0  0  0  0  0  0  0  0  0  0  0  0
   -0.7590    5.6530   -0.8900 H   0  0  0  0  0  0  0  0  0  0  0  0
   -0.7590    5.6530    0.8900 H   0  0  0  0  0  0  0  0  0  0  0  0
    0.5400    7.6610    0.8900 H   0  0  0  0  0  0  0  0  0  0  0  0
    0.5400    7.6610   -0.8900 H   0  0  0  0  0  0  0  0  0  0  0  0
  1  2  1  0  0  0  0
  1  3  1  0  0  0  0
  3  4  1  0  0  0  0
  3 17  1  0  0  0  0
  3 18  1  0  0  0  0
  4  5  1  0  0  0  0
  4 19  1  0  0  0  0
  4 20  1  0  0  0  0
  5  6  1  0  0  0  0
  5 21  1  0  0  0  0
  5 22  1  0  0  0  0
  6  7  1  0  0  0  0
  7  8  1  0  0  0  0
  7 23  1  0  0  0  0
  7 24  1  0  0  0  0
  8  9  1  0  0  0  0
  8 25  1  0  0  0  0
  8 26  1  0  0  0  0
  9 10  1  0  0  0  0
  9 27  1  0  0  0  0
  9 28  1  0  0  0  0
 10 11  1  0  0  0  0
 10 29  1  0  0  0  0
 10 30  1  0  0  0  0
 11 12  1  0  0  0  0
 12 13  1  0  0  0  0
 12 31  1  0  0  0  0
 12 32  1  0  0  0  0
 13 14  1  0  0  0  0
 13 33  1  0  0  0  0
 13 34  1  0  0  0  0
 14 15  1  0  0  0  0
 14 35  1  0  0  0  0
 14 36  1  0  0  0  0
 15 16  1  0  0  0  0
M  END
