4im0_11.pdb
  MOE2019           3D

 38 37  0  0  0  0  0  0  0  0999 V2000
   31.1560   10.0460    0.0000 O   0  0  0  0  0  0  0  0  0  0  0  0
   31.1690    9.4870    0.7800 H   0  0  0  0  0  0  0  0  0  0  0  0
   29.8570   10.7960    0.0000 C   0  0  0  0  0  0  0  0  0  0  0  0
   28.5580   10.0460    0.0000 C   0  0  0  0  0  0  0  0  0  0  0  0
   27.2590   10.7960    0.0000 O   0  0  0  0  0  0  0  0  0  0  0  0
   25.9600   10.0460    0.0000 C   0  0  0  0  0  0  0  0  0  0  0  0
   24.6610   10.7960    0.0000 C   0  0  0  0  0  0  0  0  0  0  0  0
   23.3620   10.0460    0.0000 O   0  0  0  0  0  0  0  0  0  0  0  0
   22.0630   10.7960    0.0000 C   0  0  0  0  0  0  0  0  0  0  0  0
   20.7640   10.0460    0.0000 C   0  0  0  0  0  0  0  0  0  0  0  0
   19.4650   10.7960    0.0000 O   0  0  0  0  0  0  0  0  0  0  0  0
   18.1660   10.0460    0.0000 C   0  0  0  0  0  0  0  0  0  0  0  0
   16.8670   10.7960    0.0000 C   0  0  0  0  0  0  0  0  0  0  0  0
   15.5680   10.0460    0.0000 O   0  0  0  0  0  0  0  0  0  0  0  0
   14.2690   10.7960    0.0000 C   0  0  0  0  0  0  0  0  0  0  0  0
   12.9690   10.0460    0.0000 C   0  0  0  0  0  0  0  0  0  0  0  0
   11.6700   10.7960    0.0000 O   0  0  0  0  0  0  0  0  0  0  0  0
   10.9610   10.1490    0.0000 H   0  0  0  0  0  0  0  0  0  0  0  0
   29.8570   11.4250    0.8900 H   0  0  0  0  0  0  0  0  0  0  0  0
   29.8570   11.4250   -0.8900 H   0  0  0  0  0  0  0  0  0  0  0  0
   28.5580    9.4170    0.8900 H   0  0  0  0  0  0  0  0  0  0  0  0
   28.5580    9.4170   -0.8900 H   0  0  0  0  0  0  0  0  0  0  0  0
   25.9600    9.4170   -0.8900 H   0  0  0  0  0  0  0  0  0  0  0  0
   25.9600    9.4170    0.8900 H   0  0  0  0  0  0  0  0  0  0  0  0
   24.6610   11.4250   -0.8900 H   0  0  0  0  0  0  0  0  0  0  0  0
   24.6610   11.4250    0.8900 H   0  0  0  0  0  0  0  0  0  0  0  0
   22.0630   11.4250    0.8900 H   0  0  0  0  0  0  0  0  0  0  0  0
   22.0630   11.4250   -0.8900 H   0  0  0  0  0  0  0  0  0  0  0  0
   20.7640    9.4170    0.8900 H   0  0  0  0  0  0  0  0  0  0  0  0
   20.7640    9.4170   -0.8900 H   0  0  0  0  0  0  0  0  0  0  0  0
   18.1660    9.4170   -0.8900 H   0  0  0  0  0  0  0  0  0  0  0  0
   18.1660    9.4170    0.8900 H   0  0  0  0  0  0  0  0  0  0  0  0
   16.8670   11.4250   -0.8900 H   0  0  0  0  0  0  0  0  0  0  0  0
   16.8670   11.4250    0.8900 H   0  0  0  0  0  0  0  0  0  0  0  0
   14.2690   11.4250    0.8900 H   0  0  0  0  0  0  0  0  0  0  0  0
   14.2690   11.4250   -0.8900 H   0  0  0  0  0  0  0  0  0  0  0  0
   12.9690    9.4170    0.8900 H   0  0  0  0  0  0  0  0  0  0  0  0
   12.9690    9.4170   -0.8900 H   0  0  0  0  0  0  0  0  0  0  0  0
  1  2  1  0  0  0  0
  1  3  1  0  0  0  0
  3  4  1  0  0  0  0
  3 19  1  0  0  0  0
  3 20  1  0  0  0  0
  4  5  1  0  0  0  0
  4 21  1  0  0  0  0
  4 22  1  0  0  0  0
  5  6  1  0  0  0  0
  6  7  1  0  0  0  0
  6 23  1  0  0  0  0
  6 24  1  0  0  0  0
  7  8  1  0  0  0  0
  7 25  1  0  0  0  0
  7 26  1  0  0  0  0
  8  9  1  0  0  0  0
  9 10  1  0  0  0  0
  9 27  1  0  0  0  0
  9 28  1  0  0  0  0
 10 11  1  0  0  0  0
 10 29  1  0  0  0  0
 10 30  1  0  0  0  0
 11 12  1  0  0  0  0
 12 13  1  0  0  0  0
 12 31  1  0  0  0  0
 12 32  1  0  0  0  0
 13 14  1  0  0  0  0
 13 33  1  0  0  0  0
 13 34  1  0  0  0  0
 14 15  1  0  0  0  0
 15 16  1  0  0  0  0
 15 35  1  0  0  0  0
 15 36  1  0  0  0  0
 16 17  1  0  0  0  0
 16 37  1  0  0  0  0
 16 38  1  0  0  0  0
 17 18  1  0  0  0  0
M  END
