4im0_28.pdb
  MOE2019           3D

 36 35  0  0  0  0  0  0  0  0999 V2000
   15.0780  -23.4510    0.0000 O   0  0  0  0  0  0  0  0  0  0  0  0
   14.8090  -23.9410    0.7800 H   0  0  0  0  0  0  0  0  0  0  0  0
   14.3280  -22.1520    0.0000 C   0  0  0  0  0  0  0  0  0  0  0  0
   12.8280  -22.1520    0.0000 C   0  0  0  0  0  0  0  0  0  0  0  0
   12.0780  -20.8530    0.0000 C   0  0  0  0  0  0  0  0  0  0  0  0
   10.5780  -20.8530    0.0000 O   0  0  0  0  0  0  0  0  0  0  0  0
    9.8280  -19.5540    0.0000 C   0  0  0  0  0  0  0  0  0  0  0  0
    8.3280  -19.5540    0.0000 C   0  0  0  0  0  0  0  0  0  0  0  0
    7.5780  -18.2550    0.0000 C   0  0  0  0  0  0  0  0  0  0  0  0
    6.0780  -18.2550    0.0000 C   0  0  0  0  0  0  0  0  0  0  0  0
    5.3280  -16.9560    0.0000 O   0  0  0  0  0  0  0  0  0  0  0  0
    3.8280  -16.9560    0.0000 C   0  0  0  0  0  0  0  0  0  0  0  0
    3.0780  -15.6560    0.0000 C   0  0  0  0  0  0  0  0  0  0  0  0
    1.5780  -15.6560    0.0000 C   0  0  0  0  0  0  0  0  0  0  0  0
    0.8280  -14.3570    0.0000 O   0  0  0  0  0  0  0  0  0  0  0  0
   -0.1100  -14.5630    0.0000 H   0  0  0  0  0  0  0  0  0  0  0  0
   14.6430  -21.6070    0.8900 H   0  0  0  0  0  0  0  0  0  0  0  0
   14.6430  -21.6070   -0.8900 H   0  0  0  0  0  0  0  0  0  0  0  0
   12.5130  -22.6970   -0.8900 H   0  0  0  0  0  0  0  0  0  0  0  0
   12.5130  -22.6970    0.8900 H   0  0  0  0  0  0  0  0  0  0  0  0
   12.3930  -20.3080   -0.8900 H   0  0  0  0  0  0  0  0  0  0  0  0
   12.3930  -20.3080    0.8900 H   0  0  0  0  0  0  0  0  0  0  0  0
   10.1430  -19.0090    0.8900 H   0  0  0  0  0  0  0  0  0  0  0  0
   10.1430  -19.0090   -0.8900 H   0  0  0  0  0  0  0  0  0  0  0  0
    8.0130  -20.0990   -0.8900 H   0  0  0  0  0  0  0  0  0  0  0  0
    8.0130  -20.0990    0.8900 H   0  0  0  0  0  0  0  0  0  0  0  0
    7.8930  -17.7100   -0.8900 H   0  0  0  0  0  0  0  0  0  0  0  0
    7.8930  -17.7100    0.8900 H   0  0  0  0  0  0  0  0  0  0  0  0
    5.7630  -18.8000    0.8900 H   0  0  0  0  0  0  0  0  0  0  0  0
    5.7630  -18.8000   -0.8900 H   0  0  0  0  0  0  0  0  0  0  0  0
    3.5130  -17.5010   -0.8900 H   0  0  0  0  0  0  0  0  0  0  0  0
    3.5130  -17.5010    0.8900 H   0  0  0  0  0  0  0  0  0  0  0  0
    3.3930  -15.1110   -0.8900 H   0  0  0  0  0  0  0  0  0  0  0  0
    3.3930  -15.1110    0.8900 H   0  0  0  0  0  0  0  0  0  0  0  0
    1.2630  -16.2010    0.8900 H   0  0  0  0  0  0  0  0  0  0  0  0
    1.2630  -16.2010   -0.8900 H   0  0  0  0  0  0  0  0  0  0  0  0
  1  2  1  0  0  0  0
  1  3  1  0  0  0  0
  3  4  1  0  0  0  0
  3 17  1  0  0  0  0
  3 18  1  0  0  0  0
  4  5  1  0  0  0  0
  4 19  1  0  0  0  0
  4 20  1  0  0  0  0
  5  6  1  0  0  0  0
  5 21  1  0  0  0  0
  5 22  1  0  0  0  0
  6  7  1  0  0  0  0
  7  8  1  0  0  0  0
  7 23  1  0  0  0  0
  7 24  1  0  0  0  0
  8  9  1  0  0  0  0
  8 25  1  0  0  0  0
  8 26  1  0  0  0  0
  9 10  1  0  0  0  0
  9 27  1  0  0  0  0
  9 28  1  0  0  0  0
 10 11  1  0  0  0  0
 10 29  1  0  0  0  0
 10 30  1  0  0  0  0
 11 12  1  0  0  0  0
 12 13  1  0  0  0  0
 12 31  1  0  0  0  0
 12 32  1  0  0  0  0
 13 14  1  0  0  0  0
 13 33  1  0  0  0  0
 13 34  1  0  0  0  0
 14 15  1  0  0  0  0
 14 35  1  0  0  0  0
 14 36  1  0  0  0  0
 15 16  1  0  0  0  0
M  END
