4mkc_5.pdb
  MOE2019           3D

 11 10  0  0  0  0  0  0  0  0999 V2000
    5.4830    5.0800    0.0000 C   0  0  0  0  0  0  0  0  0  0  0  0
    6.7820    5.8300    0.0000 C   0  0  0  0  0  0  0  0  0  0  0  0
    8.0810    5.0800    0.0000 C   0  0  0  0  0  0  0  0  0  0  0  0
    5.4830    4.4510    0.8900 H   0  0  0  0  0  0  0  0  0  0  0  0
    5.4830    4.4510   -0.8900 H   0  0  0  0  0  0  0  0  0  0  0  0
    4.6130    5.7370    0.0000 H   0  0  0  0  0  0  0  0  0  0  0  0
    6.7820    6.4590   -0.8900 H   0  0  0  0  0  0  0  0  0  0  0  0
    6.7820    6.4590    0.8900 H   0  0  0  0  0  0  0  0  0  0  0  0
    8.0810    4.4510   -0.8900 H   0  0  0  0  0  0  0  0  0  0  0  0
    8.0810    4.4510    0.8900 H   0  0  0  0  0  0  0  0  0  0  0  0
    8.9510    5.7370    0.0000 H   0  0  0  0  0  0  0  0  0  0  0  0
  1  2  1  0  0  0  0
  1  4  1  0  0  0  0
  1  5  1  0  0  0  0
  1  6  1  0  0  0  0
  2  3  1  0  0  0  0
  2  7  1  0  0  0  0
  2  8  1  0  0  0  0
  3  9  1  0  0  0  0
  3 10  1  0  0  0  0
  3 11  1  0  0  0  0
M  END
