4mkc_8.pdb
  MOE2019           3D

 23 22  0  0  0  0  0  0  0  0999 V2000
   12.5340  -11.6040    0.0000 C   0  0  0  0  0  0  0  0  0  0  0  0
   13.8330  -10.8540    0.0000 C   0  0  0  0  0  0  0  0  0  0  0  0
   15.1320  -11.6040    0.0000 O   0  0  0  0  0  0  0  0  0  0  0  0
   16.4310  -10.8540    0.0000 C   0  0  0  0  0  0  0  0  0  0  0  0
   17.7300  -11.6040    0.0000 C   0  0  0  0  0  0  0  0  0  0  0  0
   19.0290  -10.8540    0.0000 O   0  0  0  0  0  0  0  0  0  0  0  0
   20.3280  -11.6040    0.0000 C   0  0  0  0  0  0  0  0  0  0  0  0
   21.6270  -10.8540    0.0000 C   0  0  0  0  0  0  0  0  0  0  0  0
   22.9270  -11.6040    0.0000 O   0  0  0  0  0  0  0  0  0  0  0  0
   23.6360  -10.9560    0.0000 H   0  0  0  0  0  0  0  0  0  0  0  0
   12.5340  -12.2330    0.8900 H   0  0  0  0  0  0  0  0  0  0  0  0
   12.5340  -12.2330   -0.8900 H   0  0  0  0  0  0  0  0  0  0  0  0
   11.6640  -10.9470    0.0000 H   0  0  0  0  0  0  0  0  0  0  0  0
   13.8330  -10.2250    0.8900 H   0  0  0  0  0  0  0  0  0  0  0  0
   13.8330  -10.2250   -0.8900 H   0  0  0  0  0  0  0  0  0  0  0  0
   16.4310  -10.2250   -0.8900 H   0  0  0  0  0  0  0  0  0  0  0  0
   16.4310  -10.2250    0.8900 H   0  0  0  0  0  0  0  0  0  0  0  0
   17.7300  -12.2330   -0.8900 H   0  0  0  0  0  0  0  0  0  0  0  0
   17.7300  -12.2330    0.8900 H   0  0  0  0  0  0  0  0  0  0  0  0
   20.3280  -12.2330    0.8900 H   0  0  0  0  0  0  0  0  0  0  0  0
   20.3280  -12.2330   -0.8900 H   0  0  0  0  0  0  0  0  0  0  0  0
   21.6270  -10.2250    0.8900 H   0  0  0  0  0  0  0  0  0  0  0  0
   21.6270  -10.2250   -0.8900 H   0  0  0  0  0  0  0  0  0  0  0  0
  1  2  1  0  0  0  0
  1 11  1  0  0  0  0
  1 12  1  0  0  0  0
  1 13  1  0  0  0  0
  2  3  1  0  0  0  0
  2 14  1  0  0  0  0
  2 15  1  0  0  0  0
  3  4  1  0  0  0  0
  4  5  1  0  0  0  0
  4 16  1  0  0  0  0
  4 17  1  0  0  0  0
  5  6  1  0  0  0  0
  5 18  1  0  0  0  0
  5 19  1  0  0  0  0
  6  7  1  0  0  0  0
  7  8  1  0  0  0  0
  7 20  1  0  0  0  0
  7 21  1  0  0  0  0
  8  9  1  0  0  0  0
  8 22  1  0  0  0  0
  8 23  1  0  0  0  0
  9 10  1  0  0  0  0
M  END
