4mxo_9.pdb
  MOE2019           3D

 53 54  0  0  0  0  0  0  0  0999 V2000
    5.9640   14.7380    0.0000 C   0  0  0  0  0  0  0  0  0  0  0  0
    6.5830   13.3720    0.0000 C   0  0  0  0  0  0  0  0  0  0  0  0
    8.0750   13.2250    0.0000 C   0  0  0  0  0  0  0  0  0  0  0  0
    8.6950   11.8590    0.0000 N   0  0  0  0  0  0  0  0  0  0  0  0
    7.9530   10.5550    0.0000 N   0  0  0  0  0  0  0  0  0  0  0  0
    8.9640    9.4470    0.0000 N   0  0  0  0  0  0  0  0  0  0  0  0
   10.3300   10.0660    0.0000 C   0  0  0  0  0  0  0  0  0  0  0  0
   11.6340    9.3250    0.0000 C   0  0  0  0  0  0  0  0  0  0  0  0
   12.9280   10.0830    0.0000 N   0  0  0  0  0  0  0  0  0  0  0  0
   14.2320    9.3420    0.0000 C   0  0  0  0  0  0  0  0  0  0  0  0
   14.2420    7.8420    0.0000 C   0  0  0  0  0  0  0  0  0  0  0  0
   15.5460    7.1000    0.0000 C   0  0  0  0  0  0  0  0  0  0  0  0
   16.8400    7.8590    0.0000 C   0  0  0  0  0  0  0  0  0  0  0  0
   18.1440    7.1170    0.0000 O   0  0  0  0  0  0  0  0  0  0  0  0
   19.4380    7.8760    0.0000 C   0  0  0  0  0  0  0  0  0  0  0  0
   20.7420    7.1340    0.0000 C   0  0  0  0  0  0  0  0  0  0  0  0
   22.0360    7.8930    0.0000 O   0  0  0  0  0  0  0  0  0  0  0  0
   23.3400    7.1520    0.0000 C   0  0  0  0  0  0  0  0  0  0  0  0
   24.6340    7.9100    0.0000 C   0  0  0  0  0  0  0  0  0  0  0  0
   25.9380    7.1690    0.0000 O   0  0  0  0  0  0  0  0  0  0  0  0
   27.2320    7.9270    0.0000 C   0  0  0  0  0  0  0  0  0  0  0  0
   28.5360    7.1860    0.0000 C   0  0  0  0  0  0  0  0  0  0  0  0
   16.8300    9.3590    0.0000 C   0  0  0  0  0  0  0  0  0  0  0  0
   15.5260   10.1000    0.0000 C   0  0  0  0  0  0  0  0  0  0  0  0
   10.1640   11.5570    0.0000 C   0  0  0  0  0  0  0  0  0  0  0  0
    6.3310   15.2500    0.8900 H   0  0  0  0  0  0  0  0  0  0  0  0
    4.8740   14.7100    0.0000 H   0  0  0  0  0  0  0  0  0  0  0  0
    6.3310   15.2500   -0.8900 H   0  0  0  0  0  0  0  0  0  0  0  0
    6.2160   12.8600   -0.8900 H   0  0  0  0  0  0  0  0  0  0  0  0
    6.2160   12.8600    0.8900 H   0  0  0  0  0  0  0  0  0  0  0  0
    8.4410   13.7370    0.8900 H   0  0  0  0  0  0  0  0  0  0  0  0
    8.4410   13.7370   -0.8900 H   0  0  0  0  0  0  0  0  0  0  0  0
   11.6380    8.6960   -0.8900 H   0  0  0  0  0  0  0  0  0  0  0  0
   11.6380    8.6960    0.8900 H   0  0  0  0  0  0  0  0  0  0  0  0
   12.9210   11.0930    0.0000 H   0  0  0  0  0  0  0  0  0  0  0  0
   13.3100    7.2960    0.0000 H   0  0  0  0  0  0  0  0  0  0  0  0
   15.5530    6.0200    0.0000 H   0  0  0  0  0  0  0  0  0  0  0  0
   19.4340    8.5050    0.8900 H   0  0  0  0  0  0  0  0  0  0  0  0
   19.4340    8.5050   -0.8900 H   0  0  0  0  0  0  0  0  0  0  0  0
   20.7460    6.5050   -0.8900 H   0  0  0  0  0  0  0  0  0  0  0  0
   20.7460    6.5050    0.8900 H   0  0  0  0  0  0  0  0  0  0  0  0
   23.3440    6.5230   -0.8900 H   0  0  0  0  0  0  0  0  0  0  0  0
   23.3440    6.5230    0.8900 H   0  0  0  0  0  0  0  0  0  0  0  0
   24.6300    8.5390    0.8900 H   0  0  0  0  0  0  0  0  0  0  0  0
   24.6300    8.5390   -0.8900 H   0  0  0  0  0  0  0  0  0  0  0  0
   27.2280    8.5560    0.8900 H   0  0  0  0  0  0  0  0  0  0  0  0
   27.2280    8.5560   -0.8900 H   0  0  0  0  0  0  0  0  0  0  0  0
   28.5400    6.5570   -0.8900 H   0  0  0  0  0  0  0  0  0  0  0  0
   29.4010    7.8490    0.0000 H   0  0  0  0  0  0  0  0  0  0  0  0
   28.5400    6.5570    0.8900 H   0  0  0  0  0  0  0  0  0  0  0  0
   17.7620    9.9050    0.0000 H   0  0  0  0  0  0  0  0  0  0  0  0
   15.5190   11.1800    0.0000 H   0  0  0  0  0  0  0  0  0  0  0  0
   10.9620   12.2850    0.0000 H   0  0  0  0  0  0  0  0  0  0  0  0
  1  2  1  0  0  0  0
  1 26  1  0  0  0  0
  1 27  1  0  0  0  0
  1 28  1  0  0  0  0
  2  3  1  0  0  0  0
  2 29  1  0  0  0  0
  2 30  1  0  0  0  0
  3  4  1  0  0  0  0
  3 31  1  0  0  0  0
  3 32  1  0  0  0  0
  4  5  1  0  0  0  0
  4 25  1  0  0  0  0
  5  6  2  0  0  0  0
  6  7  1  0  0  0  0
  7  8  1  0  0  0  0
  7 25  2  0  0  0  0
  8  9  1  0  0  0  0
  8 33  1  0  0  0  0
  8 34  1  0  0  0  0
  9 10  1  0  0  0  0
  9 35  1  0  0  0  0
 10 11  1  0  0  0  0
 10 24  2  0  0  0  0
 11 12  2  0  0  0  0
 11 36  1  0  0  0  0
 12 13  1  0  0  0  0
 12 37  1  0  0  0  0
 13 14  1  0  0  0  0
 13 23  2  0  0  0  0
 14 15  1  0  0  0  0
 15 16  1  0  0  0  0
 15 38  1  0  0  0  0
 15 39  1  0  0  0  0
 16 17  1  0  0  0  0
 16 40  1  0  0  0  0
 16 41  1  0  0  0  0
 17 18  1  0  0  0  0
 18 19  1  0  0  0  0
 18 42  1  0  0  0  0
 18 43  1  0  0  0  0
 19 20  1  0  0  0  0
 19 44  1  0  0  0  0
 19 45  1  0  0  0  0
 20 21  1  0  0  0  0
 21 22  1  0  0  0  0
 21 46  1  0  0  0  0
 21 47  1  0  0  0  0
 22 48  1  0  0  0  0
 22 49  1  0  0  0  0
 22 50  1  0  0  0  0
 23 24  1  0  0  0  0
 23 51  1  0  0  0  0
 24 52  1  0  0  0  0
 25 53  1  0  0  0  0
M  END
