4mxo_8.pdb
  MOE2019           3D

 37 37  0  0  0  0  0  0  0  0999 V2000
    4.9070   -8.8650    0.0000 C   0  0  0  0  0  0  0  0  0  0  0  0
    6.1940   -8.0940    0.0000 C   0  0  0  0  0  0  0  0  0  0  0  0
    7.5050   -8.8230    0.0000 C   0  0  0  0  0  0  0  0  0  0  0  0
    8.7910   -8.0520    0.0000 N   0  0  0  0  0  0  0  0  0  0  0  0
   10.1020   -8.7810    0.0000 C   0  0  0  0  0  0  0  0  0  0  0  0
   11.3890   -8.0100    0.0000 C   0  0  0  0  0  0  0  0  0  0  0  0
   12.7000   -8.7390    0.0000 C   0  0  0  0  0  0  0  0  0  0  0  0
   12.7240  -10.2390    0.0000 C   0  0  0  0  0  0  0  0  0  0  0  0
   14.0350  -10.9680    0.0000 O   0  0  0  0  0  0  0  0  0  0  0  0
   15.3220  -10.1970    0.0000 C   0  0  0  0  0  0  0  0  0  0  0  0
   16.6330  -10.9260    0.0000 C   0  0  0  0  0  0  0  0  0  0  0  0
   17.9200  -10.1550    0.0000 O   0  0  0  0  0  0  0  0  0  0  0  0
   19.2310  -10.8840    0.0000 C   0  0  0  0  0  0  0  0  0  0  0  0
   20.5180  -10.1130    0.0000 C   0  0  0  0  0  0  0  0  0  0  0  0
   11.4380  -11.0100    0.0000 C   0  0  0  0  0  0  0  0  0  0  0  0
   10.1270  -10.2810    0.0000 C   0  0  0  0  0  0  0  0  0  0  0  0
    4.9170   -9.4940   -0.8900 H   0  0  0  0  0  0  0  0  0  0  0  0
    4.0270   -8.2220    0.0000 H   0  0  0  0  0  0  0  0  0  0  0  0
    4.9170   -9.4940    0.8900 H   0  0  0  0  0  0  0  0  0  0  0  0
    6.1840   -7.4650    0.8900 H   0  0  0  0  0  0  0  0  0  0  0  0
    6.1840   -7.4650   -0.8900 H   0  0  0  0  0  0  0  0  0  0  0  0
    7.5150   -9.4520   -0.8900 H   0  0  0  0  0  0  0  0  0  0  0  0
    7.5150   -9.4520    0.8900 H   0  0  0  0  0  0  0  0  0  0  0  0
    8.7750   -7.0420    0.0000 H   0  0  0  0  0  0  0  0  0  0  0  0
   11.3720   -6.9300    0.0000 H   0  0  0  0  0  0  0  0  0  0  0  0
   13.6270   -8.1840    0.0000 H   0  0  0  0  0  0  0  0  0  0  0  0
   15.3120   -9.5680    0.8900 H   0  0  0  0  0  0  0  0  0  0  0  0
   15.3120   -9.5680   -0.8900 H   0  0  0  0  0  0  0  0  0  0  0  0
   16.6430  -11.5550   -0.8900 H   0  0  0  0  0  0  0  0  0  0  0  0
   16.6430  -11.5550    0.8900 H   0  0  0  0  0  0  0  0  0  0  0  0
   19.2410  -11.5130   -0.8900 H   0  0  0  0  0  0  0  0  0  0  0  0
   19.2410  -11.5130    0.8900 H   0  0  0  0  0  0  0  0  0  0  0  0
   20.5080   -9.4840    0.8900 H   0  0  0  0  0  0  0  0  0  0  0  0
   21.3980  -10.7560    0.0000 H   0  0  0  0  0  0  0  0  0  0  0  0
   20.5080   -9.4840   -0.8900 H   0  0  0  0  0  0  0  0  0  0  0  0
   11.4560  -12.0900    0.0000 H   0  0  0  0  0  0  0  0  0  0  0  0
    9.2010  -10.8360    0.0000 H   0  0  0  0  0  0  0  0  0  0  0  0
  1  2  1  0  0  0  0
  1 17  1  0  0  0  0
  1 18  1  0  0  0  0
  1 19  1  0  0  0  0
  2  3  1  0  0  0  0
  2 20  1  0  0  0  0
  2 21  1  0  0  0  0
  3  4  1  0  0  0  0
  3 22  1  0  0  0  0
  3 23  1  0  0  0  0
  4  5  1  0  0  0  0
  4 24  1  0  0  0  0
  5  6  1  0  0  0  0
  5 16  2  0  0  0  0
  6  7  2  0  0  0  0
  6 25  1  0  0  0  0
  7  8  1  0  0  0  0
  7 26  1  0  0  0  0
  8  9  1  0  0  0  0
  8 15  2  0  0  0  0
  9 10  1  0  0  0  0
 10 11  1  0  0  0  0
 10 27  1  0  0  0  0
 10 28  1  0  0  0  0
 11 12  1  0  0  0  0
 11 29  1  0  0  0  0
 11 30  1  0  0  0  0
 12 13  1  0  0  0  0
 13 14  1  0  0  0  0
 13 31  1  0  0  0  0
 13 32  1  0  0  0  0
 14 33  1  0  0  0  0
 14 34  1  0  0  0  0
 14 35  1  0  0  0  0
 15 16  1  0  0  0  0
 15 36  1  0  0  0  0
 16 37  1  0  0  0  0
M  END
