4mxo_6.pdb
  MOE2019           3D

 49 50  0  0  0  0  0  0  0  0999 V2000
   -5.3530   14.1220    0.0000 C   0  0  0  0  0  0  0  0  0  0  0  0
   -3.8630   13.9540    0.0000 C   0  0  0  0  0  0  0  0  0  0  0  0
   -3.1220   12.6500    0.0000 N   0  0  0  0  0  0  0  0  0  0  0  0
   -1.6530   12.9510    0.0000 N   0  0  0  0  0  0  0  0  0  0  0  0
   -1.4850   14.4410    0.0000 N   0  0  0  0  0  0  0  0  0  0  0  0
   -0.1810   15.1820    0.0000 C   0  0  0  0  0  0  0  0  0  0  0  0
    1.1130   14.4220    0.0000 C   0  0  0  0  0  0  0  0  0  0  0  0
    2.4170   15.1630    0.0000 O   0  0  0  0  0  0  0  0  0  0  0  0
    1.1020   12.9220    0.0000 N   0  0  0  0  0  0  0  0  0  0  0  0
    2.3960   12.1630    0.0000 C   0  0  0  0  0  0  0  0  0  0  0  0
    2.3850   10.6630    0.0000 C   0  0  0  0  0  0  0  0  0  0  0  0
    3.6780    9.9040    0.0000 C   0  0  0  0  0  0  0  0  0  0  0  0
    4.9830   10.6440    0.0000 C   0  0  0  0  0  0  0  0  0  0  0  0
    6.2760    9.8850    0.0000 O   0  0  0  0  0  0  0  0  0  0  0  0
    4.9940   12.1440    0.0000 C   0  0  0  0  0  0  0  0  0  0  0  0
    3.7000   12.9040    0.0000 C   0  0  0  0  0  0  0  0  0  0  0  0
   -2.8510   15.0620    0.0000 C   0  0  0  0  0  0  0  0  0  0  0  0
   -5.7270   13.6160   -0.8900 H   0  0  0  0  0  0  0  0  0  0  0  0
   -5.6620   15.1670    0.0000 H   0  0  0  0  0  0  0  0  0  0  0  0
   -5.7270   13.6160    0.8900 H   0  0  0  0  0  0  0  0  0  0  0  0
   -0.1770   15.8110    0.8900 H   0  0  0  0  0  0  0  0  0  0  0  0
   -0.1770   15.8110   -0.8900 H   0  0  0  0  0  0  0  0  0  0  0  0
    0.2240   12.4230    0.0000 H   0  0  0  0  0  0  0  0  0  0  0  0
    1.4460   10.1300    0.0000 H   0  0  0  0  0  0  0  0  0  0  0  0
    3.6700    8.8240    0.0000 H   0  0  0  0  0  0  0  0  0  0  0  0
    5.9330   12.6770    0.0000 H   0  0  0  0  0  0  0  0  0  0  0  0
    3.7080   13.9840    0.0000 H   0  0  0  0  0  0  0  0  0  0  0  0
   -3.0680   16.1200    0.0000 H   0  0  0  0  0  0  0  0  0  0  0  0
    7.5810   10.6250    0.0000 C   0  0  0  0  0  0  0  0  0  0  0  0
    7.5860   11.2540   -0.8900 H   0  0  0  0  0  0  0  0  0  0  0  0
    7.5860   11.2540    0.8900 H   0  0  0  0  0  0  0  0  0  0  0  0
    8.8740    9.8660    0.0000 C   0  0  0  0  0  0  0  0  0  0  0  0
   10.1790   10.6060    0.0000 O   0  0  0  0  0  0  0  0  0  0  0  0
   11.4720    9.8470    0.0000 C   0  0  0  0  0  0  0  0  0  0  0  0
   12.7770   10.5870    0.0000 C   0  0  0  0  0  0  0  0  0  0  0  0
   14.0700    9.8280    0.0000 O   0  0  0  0  0  0  0  0  0  0  0  0
   15.3750   10.5680    0.0000 C   0  0  0  0  0  0  0  0  0  0  0  0
   16.6680    9.8090    0.0000 C   0  0  0  0  0  0  0  0  0  0  0  0
    8.8690    9.2370   -0.8900 H   0  0  0  0  0  0  0  0  0  0  0  0
    8.8690    9.2370    0.8900 H   0  0  0  0  0  0  0  0  0  0  0  0
   11.4670    9.2180   -0.8900 H   0  0  0  0  0  0  0  0  0  0  0  0
   11.4670    9.2180    0.8900 H   0  0  0  0  0  0  0  0  0  0  0  0
   12.7820   11.2160    0.8900 H   0  0  0  0  0  0  0  0  0  0  0  0
   12.7820   11.2160   -0.8900 H   0  0  0  0  0  0  0  0  0  0  0  0
   15.3800   11.1970    0.8900 H   0  0  0  0  0  0  0  0  0  0  0  0
   15.3800   11.1970   -0.8900 H   0  0  0  0  0  0  0  0  0  0  0  0
   16.6630    9.1800   -0.8900 H   0  0  0  0  0  0  0  0  0  0  0  0
   17.5430   10.4590    0.0000 H   0  0  0  0  0  0  0  0  0  0  0  0
   16.6630    9.1800    0.8900 H   0  0  0  0  0  0  0  0  0  0  0  0
  1  2  1  0  0  0  0
  1 18  1  0  0  0  0
  1 19  1  0  0  0  0
  1 20  1  0  0  0  0
  2  3  1  0  0  0  0
  2 17  2  0  0  0  0
  3  4  2  0  0  0  0
  4  5  1  0  0  0  0
  5  6  1  0  0  0  0
  5 17  1  0  0  0  0
  6  7  1  0  0  0  0
  6 21  1  0  0  0  0
  6 22  1  0  0  0  0
  7  8  2  0  0  0  0
  7  9  1  0  0  0  0
  9 10  1  0  0  0  0
  9 23  1  0  0  0  0
 10 11  1  0  0  0  0
 10 16  2  0  0  0  0
 11 12  2  0  0  0  0
 11 24  1  0  0  0  0
 12 13  1  0  0  0  0
 12 25  1  0  0  0  0
 13 14  1  0  0  0  0
 13 15  2  0  0  0  0
 14 29  1  0  0  0  0
 15 16  1  0  0  0  0
 15 26  1  0  0  0  0
 16 27  1  0  0  0  0
 17 28  1  0  0  0  0
 29 30  1  0  0  0  0
 29 31  1  0  0  0  0
 29 32  1  0  0  0  0
 32 33  1  0  0  0  0
 32 39  1  0  0  0  0
 32 40  1  0  0  0  0
 33 34  1  0  0  0  0
 34 35  1  0  0  0  0
 34 41  1  0  0  0  0
 34 42  1  0  0  0  0
 35 36  1  0  0  0  0
 35 43  1  0  0  0  0
 35 44  1  0  0  0  0
 36 37  1  0  0  0  0
 37 38  1  0  0  0  0
 37 45  1  0  0  0  0
 37 46  1  0  0  0  0
 38 47  1  0  0  0  0
 38 48  1  0  0  0  0
 38 49  1  0  0  0  0
M  END
