4otr_1.pdb
  MOE2019           3D

 26 25  0  0  0  0  0  0  0  0999 V2000
   30.8710    8.2720    0.0000 O   0  0  0  0  0  0  0  0  0  0  0  0
   29.5720    7.5220    0.0000 C   0  0  0  0  0  0  0  0  0  0  0  0
   28.2730    8.2720    0.0000 N   0  0  0  0  0  0  0  0  0  0  0  0
   26.9740    7.5220    0.0000 C   0  0  0  0  0  0  0  0  0  0  0  0
   25.6750    8.2720    0.0000 C   0  0  0  0  0  0  0  0  0  0  0  0
   24.3760    7.5220    0.0000 O   0  0  0  0  0  0  0  0  0  0  0  0
   23.0770    8.2720    0.0000 C   0  0  0  0  0  0  0  0  0  0  0  0
   21.7780    7.5220    0.0000 C   0  0  0  0  0  0  0  0  0  0  0  0
   20.4790    8.2720    0.0000 O   0  0  0  0  0  0  0  0  0  0  0  0
   19.1800    7.5220    0.0000 C   0  0  0  0  0  0  0  0  0  0  0  0
   29.5720    6.0220    0.0000 C   0  0  0  0  0  0  0  0  0  0  0  0
   28.2730    9.2820    0.0000 H   0  0  0  0  0  0  0  0  0  0  0  0
   26.9740    6.8930    0.8900 H   0  0  0  0  0  0  0  0  0  0  0  0
   26.9740    6.8930   -0.8900 H   0  0  0  0  0  0  0  0  0  0  0  0
   25.6750    8.9010   -0.8900 H   0  0  0  0  0  0  0  0  0  0  0  0
   25.6750    8.9010    0.8900 H   0  0  0  0  0  0  0  0  0  0  0  0
   23.0770    8.9010   -0.8900 H   0  0  0  0  0  0  0  0  0  0  0  0
   23.0770    8.9010    0.8900 H   0  0  0  0  0  0  0  0  0  0  0  0
   21.7780    6.8930    0.8900 H   0  0  0  0  0  0  0  0  0  0  0  0
   21.7780    6.8930   -0.8900 H   0  0  0  0  0  0  0  0  0  0  0  0
   19.1800    6.8930    0.8900 H   0  0  0  0  0  0  0  0  0  0  0  0
   18.3100    8.1790    0.0000 H   0  0  0  0  0  0  0  0  0  0  0  0
   19.1800    6.8930   -0.8900 H   0  0  0  0  0  0  0  0  0  0  0  0
   29.0270    5.7070   -0.8900 H   0  0  0  0  0  0  0  0  0  0  0  0
   30.5760    5.5980    0.0000 H   0  0  0  0  0  0  0  0  0  0  0  0
   29.0270    5.7070    0.8900 H   0  0  0  0  0  0  0  0  0  0  0  0
  1  2  2  0  0  0  0
  2  3  1  0  0  0  0
  2 11  1  0  0  0  0
  3  4  1  0  0  0  0
  3 12  1  0  0  0  0
  4  5  1  0  0  0  0
  4 13  1  0  0  0  0
  4 14  1  0  0  0  0
  5  6  1  0  0  0  0
  5 15  1  0  0  0  0
  5 16  1  0  0  0  0
  6  7  1  0  0  0  0
  7  8  1  0  0  0  0
  7 17  1  0  0  0  0
  7 18  1  0  0  0  0
  8  9  1  0  0  0  0
  8 19  1  0  0  0  0
  8 20  1  0  0  0  0
  9 10  1  0  0  0  0
 10 21  1  0  0  0  0
 10 22  1  0  0  0  0
 10 23  1  0  0  0  0
 11 24  1  0  0  0  0
 11 25  1  0  0  0  0
 11 26  1  0  0  0  0
M  END
