4qnq_40.pdb
  MOE2019           3D

 22 21  0  0  0  0  0  0  0  0999 V2000
   24.7170   20.6500    0.0000 C   0  0  0  0  0  0  0  0  0  0  0  0
   25.4670   19.3500    0.0000 C   0  0  0  0  0  0  0  0  0  0  0  0
   26.9670   19.3500    0.0000 O   0  0  0  0  0  0  0  0  0  0  0  0
   27.7170   18.0510    0.0000 C   0  0  0  0  0  0  0  0  0  0  0  0
   29.2170   18.0510    0.0000 C   0  0  0  0  0  0  0  0  0  0  0  0
   29.9670   16.7520    0.0000 O   0  0  0  0  0  0  0  0  0  0  0  0
   31.4670   16.7520    0.0000 C   0  0  0  0  0  0  0  0  0  0  0  0
   32.2170   15.4530    0.0000 C   0  0  0  0  0  0  0  0  0  0  0  0
   25.0320   21.1950   -0.8900 H   0  0  0  0  0  0  0  0  0  0  0  0
   25.0320   21.1950    0.8900 H   0  0  0  0  0  0  0  0  0  0  0  0
   23.6350   20.5160    0.0000 H   0  0  0  0  0  0  0  0  0  0  0  0
   25.1520   18.8050   -0.8900 H   0  0  0  0  0  0  0  0  0  0  0  0
   25.1520   18.8050    0.8900 H   0  0  0  0  0  0  0  0  0  0  0  0
   27.4020   17.5060    0.8900 H   0  0  0  0  0  0  0  0  0  0  0  0
   27.4020   17.5060   -0.8900 H   0  0  0  0  0  0  0  0  0  0  0  0
   29.5320   18.5960    0.8900 H   0  0  0  0  0  0  0  0  0  0  0  0
   29.5320   18.5960   -0.8900 H   0  0  0  0  0  0  0  0  0  0  0  0
   31.7820   17.2970   -0.8900 H   0  0  0  0  0  0  0  0  0  0  0  0
   31.7820   17.2970    0.8900 H   0  0  0  0  0  0  0  0  0  0  0  0
   31.9020   14.9080   -0.8900 H   0  0  0  0  0  0  0  0  0  0  0  0
   31.9020   14.9080    0.8900 H   0  0  0  0  0  0  0  0  0  0  0  0
   33.2990   15.5870    0.0000 H   0  0  0  0  0  0  0  0  0  0  0  0
  1  2  1  0  0  0  0
  1  9  1  0  0  0  0
  1 10  1  0  0  0  0
  1 11  1  0  0  0  0
  2  3  1  0  0  0  0
  2 12  1  0  0  0  0
  2 13  1  0  0  0  0
  3  4  1  0  0  0  0
  4  5  1  0  0  0  0
  4 14  1  0  0  0  0
  4 15  1  0  0  0  0
  5  6  1  0  0  0  0
  5 16  1  0  0  0  0
  5 17  1  0  0  0  0
  6  7  1  0  0  0  0
  7  8  1  0  0  0  0
  7 18  1  0  0  0  0
  7 19  1  0  0  0  0
  8 20  1  0  0  0  0
  8 21  1  0  0  0  0
  8 22  1  0  0  0  0
M  END
