4qnq_36.pdb
  MOE2019           3D

 30 29  0  0  0  0  0  0  0  0999 V2000
   28.4590   22.8570    0.0000 O   0  0  0  0  0  0  0  0  0  0  0  0
   27.7500   22.2100    0.0000 H   0  0  0  0  0  0  0  0  0  0  0  0
   29.7580   22.1070    0.0000 C   0  0  0  0  0  0  0  0  0  0  0  0
   31.0570   22.8570    0.0000 C   0  0  0  0  0  0  0  0  0  0  0  0
   32.3560   22.1070    0.0000 O   0  0  0  0  0  0  0  0  0  0  0  0
   33.6550   22.8570    0.0000 C   0  0  0  0  0  0  0  0  0  0  0  0
   34.9540   22.1070    0.0000 C   0  0  0  0  0  0  0  0  0  0  0  0
   36.2530   22.8570    0.0000 O   0  0  0  0  0  0  0  0  0  0  0  0
   37.5520   22.1070    0.0000 C   0  0  0  0  0  0  0  0  0  0  0  0
   38.8510   22.8570    0.0000 C   0  0  0  0  0  0  0  0  0  0  0  0
   40.1500   22.1070    0.0000 O   0  0  0  0  0  0  0  0  0  0  0  0
   41.4490   22.8570    0.0000 C   0  0  0  0  0  0  0  0  0  0  0  0
   42.7480   22.1070    0.0000 C   0  0  0  0  0  0  0  0  0  0  0  0
   29.7580   21.4780    0.8900 H   0  0  0  0  0  0  0  0  0  0  0  0
   29.7580   21.4780   -0.8900 H   0  0  0  0  0  0  0  0  0  0  0  0
   31.0570   23.4860    0.8900 H   0  0  0  0  0  0  0  0  0  0  0  0
   31.0570   23.4860   -0.8900 H   0  0  0  0  0  0  0  0  0  0  0  0
   33.6550   23.4860   -0.8900 H   0  0  0  0  0  0  0  0  0  0  0  0
   33.6550   23.4860    0.8900 H   0  0  0  0  0  0  0  0  0  0  0  0
   34.9540   21.4780   -0.8900 H   0  0  0  0  0  0  0  0  0  0  0  0
   34.9540   21.4780    0.8900 H   0  0  0  0  0  0  0  0  0  0  0  0
   37.5520   21.4780    0.8900 H   0  0  0  0  0  0  0  0  0  0  0  0
   37.5520   21.4780   -0.8900 H   0  0  0  0  0  0  0  0  0  0  0  0
   38.8510   23.4860    0.8900 H   0  0  0  0  0  0  0  0  0  0  0  0
   38.8510   23.4860   -0.8900 H   0  0  0  0  0  0  0  0  0  0  0  0
   41.4490   23.4860   -0.8900 H   0  0  0  0  0  0  0  0  0  0  0  0
   41.4490   23.4860    0.8900 H   0  0  0  0  0  0  0  0  0  0  0  0
   42.7480   21.4780   -0.8900 H   0  0  0  0  0  0  0  0  0  0  0  0
   42.7480   21.4780    0.8900 H   0  0  0  0  0  0  0  0  0  0  0  0
   43.6180   22.7640    0.0000 H   0  0  0  0  0  0  0  0  0  0  0  0
  1  2  1  0  0  0  0
  1  3  1  0  0  0  0
  3  4  1  0  0  0  0
  3 14  1  0  0  0  0
  3 15  1  0  0  0  0
  4  5  1  0  0  0  0
  4 16  1  0  0  0  0
  4 17  1  0  0  0  0
  5  6  1  0  0  0  0
  6  7  1  0  0  0  0
  6 18  1  0  0  0  0
  6 19  1  0  0  0  0
  7  8  1  0  0  0  0
  7 20  1  0  0  0  0
  7 21  1  0  0  0  0
  8  9  1  0  0  0  0
  9 10  1  0  0  0  0
  9 22  1  0  0  0  0
  9 23  1  0  0  0  0
 10 11  1  0  0  0  0
 10 24  1  0  0  0  0
 10 25  1  0  0  0  0
 11 12  1  0  0  0  0
 12 13  1  0  0  0  0
 12 26  1  0  0  0  0
 12 27  1  0  0  0  0
 13 28  1  0  0  0  0
 13 29  1  0  0  0  0
 13 30  1  0  0  0  0
M  END
