4qnq_15.pdb
  MOE2019           3D

 16 15  0  0  0  0  0  0  0  0999 V2000
   22.1380  -20.1640    0.0000 C   0  0  0  0  0  0  0  0  0  0  0  0
   22.8880  -21.4630    0.0000 C   0  0  0  0  0  0  0  0  0  0  0  0
   24.3880  -21.4630    0.0000 O   0  0  0  0  0  0  0  0  0  0  0  0
   25.1380  -22.7620    0.0000 C   0  0  0  0  0  0  0  0  0  0  0  0
   26.6380  -22.7620    0.0000 C   0  0  0  0  0  0  0  0  0  0  0  0
   27.3880  -24.0610    0.0000 O   0  0  0  0  0  0  0  0  0  0  0  0
   28.3260  -23.8550    0.0000 H   0  0  0  0  0  0  0  0  0  0  0  0
   22.4530  -19.6190   -0.8900 H   0  0  0  0  0  0  0  0  0  0  0  0
   22.4530  -19.6190    0.8900 H   0  0  0  0  0  0  0  0  0  0  0  0
   21.0560  -20.2980    0.0000 H   0  0  0  0  0  0  0  0  0  0  0  0
   22.5730  -22.0080   -0.8900 H   0  0  0  0  0  0  0  0  0  0  0  0
   22.5730  -22.0080    0.8900 H   0  0  0  0  0  0  0  0  0  0  0  0
   24.8230  -23.3070    0.8900 H   0  0  0  0  0  0  0  0  0  0  0  0
   24.8230  -23.3070   -0.8900 H   0  0  0  0  0  0  0  0  0  0  0  0
   26.9530  -22.2170    0.8900 H   0  0  0  0  0  0  0  0  0  0  0  0
   26.9530  -22.2170   -0.8900 H   0  0  0  0  0  0  0  0  0  0  0  0
  1  2  1  0  0  0  0
  1  8  1  0  0  0  0
  1  9  1  0  0  0  0
  1 10  1  0  0  0  0
  2  3  1  0  0  0  0
  2 11  1  0  0  0  0
  2 12  1  0  0  0  0
  3  4  1  0  0  0  0
  4  5  1  0  0  0  0
  4 13  1  0  0  0  0
  4 14  1  0  0  0  0
  5  6  1  0  0  0  0
  5 15  1  0  0  0  0
  5 16  1  0  0  0  0
  6  7  1  0  0  0  0
M  END
