4qnq_43.pdb
  MOE2019           3D

 38 38  0  0  0  0  0  0  0  0999 V2000
   21.8710   20.1590    0.0000 C   0  0  0  0  0  0  0  0  0  0  0  0
   23.3700   20.1240    0.0000 C   0  0  0  0  0  0  0  0  0  0  0  0
   24.0900   18.8080    0.0000 N   0  0  0  0  0  0  0  0  0  0  0  0
   23.4480   17.4520    0.0000 N   0  0  0  0  0  0  0  0  0  0  0  0
   24.5400   16.4230    0.0000 N   0  0  0  0  0  0  0  0  0  0  0  0
   25.8560   17.1430    0.0000 C   0  0  0  0  0  0  0  0  0  0  0  0
   27.2120   16.5010    0.0000 C   0  0  0  0  0  0  0  0  0  0  0  0
   28.4450   17.3550    0.0000 O   0  0  0  0  0  0  0  0  0  0  0  0
   29.8010   16.7130    0.0000 C   0  0  0  0  0  0  0  0  0  0  0  0
   31.0350   17.5670    0.0000 C   0  0  0  0  0  0  0  0  0  0  0  0
   32.3900   16.9250    0.0000 O   0  0  0  0  0  0  0  0  0  0  0  0
   33.6240   17.7780    0.0000 C   0  0  0  0  0  0  0  0  0  0  0  0
   33.5020   19.2730    0.0000 C   0  0  0  0  0  0  0  0  0  0  0  0
   34.7350   20.1270    0.0000 O   0  0  0  0  0  0  0  0  0  0  0  0
   36.0910   19.4850    0.0000 C   0  0  0  0  0  0  0  0  0  0  0  0
   37.3250   20.3390    0.0000 C   0  0  0  0  0  0  0  0  0  0  0  0
   25.5780   18.6170    0.0000 C   0  0  0  0  0  0  0  0  0  0  0  0
   21.5440   19.6210   -0.8900 H   0  0  0  0  0  0  0  0  0  0  0  0
   21.5440   19.6210    0.8900 H   0  0  0  0  0  0  0  0  0  0  0  0
   21.4700   21.1730    0.0000 H   0  0  0  0  0  0  0  0  0  0  0  0
   23.6970   20.6620    0.8900 H   0  0  0  0  0  0  0  0  0  0  0  0
   23.6970   20.6620   -0.8900 H   0  0  0  0  0  0  0  0  0  0  0  0
   27.2630   15.8740   -0.8900 H   0  0  0  0  0  0  0  0  0  0  0  0
   27.2630   15.8740    0.8900 H   0  0  0  0  0  0  0  0  0  0  0  0
   29.8520   16.0860    0.8900 H   0  0  0  0  0  0  0  0  0  0  0  0
   29.8520   16.0860   -0.8900 H   0  0  0  0  0  0  0  0  0  0  0  0
   30.9840   18.1940    0.8900 H   0  0  0  0  0  0  0  0  0  0  0  0
   30.9840   18.1940   -0.8900 H   0  0  0  0  0  0  0  0  0  0  0  0
   34.1930   17.5090    0.8900 H   0  0  0  0  0  0  0  0  0  0  0  0
   34.1930   17.5090   -0.8900 H   0  0  0  0  0  0  0  0  0  0  0  0
   32.9330   19.5420    0.8900 H   0  0  0  0  0  0  0  0  0  0  0  0
   32.9330   19.5420   -0.8900 H   0  0  0  0  0  0  0  0  0  0  0  0
   36.1420   18.8580    0.8900 H   0  0  0  0  0  0  0  0  0  0  0  0
   36.1420   18.8580   -0.8900 H   0  0  0  0  0  0  0  0  0  0  0  0
   37.2740   20.9660    0.8900 H   0  0  0  0  0  0  0  0  0  0  0  0
   37.2740   20.9660   -0.8900 H   0  0  0  0  0  0  0  0  0  0  0  0
   38.2450   19.7550    0.0000 H   0  0  0  0  0  0  0  0  0  0  0  0
   26.3190   19.4030    0.0000 H   0  0  0  0  0  0  0  0  0  0  0  0
  1  2  1  0  0  0  0
  1 18  1  0  0  0  0
  1 19  1  0  0  0  0
  1 20  1  0  0  0  0
  2  3  1  0  0  0  0
  2 21  1  0  0  0  0
  2 22  1  0  0  0  0
  3  4  1  0  0  0  0
  3 17  1  0  0  0  0
  4  5  2  0  0  0  0
  5  6  1  0  0  0  0
  6  7  1  0  0  0  0
  6 17  2  0  0  0  0
  7  8  1  0  0  0  0
  7 23  1  0  0  0  0
  7 24  1  0  0  0  0
  8  9  1  0  0  0  0
  9 10  1  0  0  0  0
  9 25  1  0  0  0  0
  9 26  1  0  0  0  0
 10 11  1  0  0  0  0
 10 27  1  0  0  0  0
 10 28  1  0  0  0  0
 11 12  1  0  0  0  0
 12 13  1  0  0  0  0
 12 29  1  0  0  0  0
 12 30  1  0  0  0  0
 13 14  1  0  0  0  0
 13 31  1  0  0  0  0
 13 32  1  0  0  0  0
 14 15  1  0  0  0  0
 15 16  1  0  0  0  0
 15 33  1  0  0  0  0
 15 34  1  0  0  0  0
 16 35  1  0  0  0  0
 16 36  1  0  0  0  0
 16 37  1  0  0  0  0
 17 38  1  0  0  0  0
M  END
