4qnq_51.pdb
  MOE2019           3D

 20 19  0  0  0  0  0  0  0  0999 V2000
   11.6380  -14.2940    0.0000 C   0  0  0  0  0  0  0  0  0  0  0  0
   10.3390  -13.5440    0.0000 C   0  0  0  0  0  0  0  0  0  0  0  0
    9.0390  -14.2940    0.0000 C   0  0  0  0  0  0  0  0  0  0  0  0
    7.7400  -13.5440    0.0000 C   0  0  0  0  0  0  0  0  0  0  0  0
    6.4410  -14.2940    0.0000 C   0  0  0  0  0  0  0  0  0  0  0  0
    5.1420  -13.5440    0.0000 C   0  0  0  0  0  0  0  0  0  0  0  0
   11.6380  -14.9230   -0.8900 H   0  0  0  0  0  0  0  0  0  0  0  0
   11.6380  -14.9230    0.8900 H   0  0  0  0  0  0  0  0  0  0  0  0
   12.5080  -13.6370    0.0000 H   0  0  0  0  0  0  0  0  0  0  0  0
   10.3390  -12.9150    0.8900 H   0  0  0  0  0  0  0  0  0  0  0  0
   10.3390  -12.9150   -0.8900 H   0  0  0  0  0  0  0  0  0  0  0  0
    9.0390  -14.9230   -0.8900 H   0  0  0  0  0  0  0  0  0  0  0  0
    9.0390  -14.9230    0.8900 H   0  0  0  0  0  0  0  0  0  0  0  0
    7.7400  -12.9150   -0.8900 H   0  0  0  0  0  0  0  0  0  0  0  0
    7.7400  -12.9150    0.8900 H   0  0  0  0  0  0  0  0  0  0  0  0
    6.4410  -14.9230    0.8900 H   0  0  0  0  0  0  0  0  0  0  0  0
    6.4410  -14.9230   -0.8900 H   0  0  0  0  0  0  0  0  0  0  0  0
    5.1420  -12.9150   -0.8900 H   0  0  0  0  0  0  0  0  0  0  0  0
    5.1420  -12.9150    0.8900 H   0  0  0  0  0  0  0  0  0  0  0  0
    4.2720  -14.2010    0.0000 H   0  0  0  0  0  0  0  0  0  0  0  0
  1  2  1  0  0  0  0
  1  7  1  0  0  0  0
  1  8  1  0  0  0  0
  1  9  1  0  0  0  0
  2  3  1  0  0  0  0
  2 10  1  0  0  0  0
  2 11  1  0  0  0  0
  3  4  1  0  0  0  0
  3 12  1  0  0  0  0
  3 13  1  0  0  0  0
  4  5  1  0  0  0  0
  4 14  1  0  0  0  0
  4 15  1  0  0  0  0
  5  6  1  0  0  0  0
  5 16  1  0  0  0  0
  5 17  1  0  0  0  0
  6 18  1  0  0  0  0
  6 19  1  0  0  0  0
  6 20  1  0  0  0  0
M  END
