4qnq_55.pdb
  MOE2019           3D

 36 35  0  0  0  0  0  0  0  0999 V2000
    8.2900  -15.7960    0.0000 C   0  0  0  0  0  0  0  0  0  0  0  0
    9.0400  -17.0950    0.0000 C   0  0  0  0  0  0  0  0  0  0  0  0
   10.5400  -17.0950    0.0000 O   0  0  0  0  0  0  0  0  0  0  0  0
   11.2900  -18.3940    0.0000 C   0  0  0  0  0  0  0  0  0  0  0  0
   12.7900  -18.3940    0.0000 C   0  0  0  0  0  0  0  0  0  0  0  0
   13.5400  -19.6930    0.0000 O   0  0  0  0  0  0  0  0  0  0  0  0
   15.0400  -19.6930    0.0000 C   0  0  0  0  0  0  0  0  0  0  0  0
   15.7900  -20.9920    0.0000 C   0  0  0  0  0  0  0  0  0  0  0  0
   17.2900  -20.9920    0.0000 O   0  0  0  0  0  0  0  0  0  0  0  0
   18.0400  -22.2910    0.0000 C   0  0  0  0  0  0  0  0  0  0  0  0
   19.5400  -22.2910    0.0000 C   0  0  0  0  0  0  0  0  0  0  0  0
   20.2900  -20.9920    0.0000 O   0  0  0  0  0  0  0  0  0  0  0  0
   21.7900  -20.9920    0.0000 C   0  0  0  0  0  0  0  0  0  0  0  0
   22.5400  -19.6930    0.0000 C   0  0  0  0  0  0  0  0  0  0  0  0
    8.6050  -15.2510   -0.8900 H   0  0  0  0  0  0  0  0  0  0  0  0
    8.6050  -15.2510    0.8900 H   0  0  0  0  0  0  0  0  0  0  0  0
    7.2080  -15.9300    0.0000 H   0  0  0  0  0  0  0  0  0  0  0  0
    8.7250  -17.6400   -0.8900 H   0  0  0  0  0  0  0  0  0  0  0  0
    8.7250  -17.6400    0.8900 H   0  0  0  0  0  0  0  0  0  0  0  0
   10.9750  -18.9390    0.8900 H   0  0  0  0  0  0  0  0  0  0  0  0
   10.9750  -18.9390   -0.8900 H   0  0  0  0  0  0  0  0  0  0  0  0
   13.1050  -17.8490    0.8900 H   0  0  0  0  0  0  0  0  0  0  0  0
   13.1050  -17.8490   -0.8900 H   0  0  0  0  0  0  0  0  0  0  0  0
   15.3550  -19.1480   -0.8900 H   0  0  0  0  0  0  0  0  0  0  0  0
   15.3550  -19.1480    0.8900 H   0  0  0  0  0  0  0  0  0  0  0  0
   15.4750  -21.5370   -0.8900 H   0  0  0  0  0  0  0  0  0  0  0  0
   15.4750  -21.5370    0.8900 H   0  0  0  0  0  0  0  0  0  0  0  0
   17.7250  -22.8360    0.8900 H   0  0  0  0  0  0  0  0  0  0  0  0
   17.7250  -22.8360   -0.8900 H   0  0  0  0  0  0  0  0  0  0  0  0
   19.8550  -22.8360   -0.8900 H   0  0  0  0  0  0  0  0  0  0  0  0
   19.8550  -22.8360    0.8900 H   0  0  0  0  0  0  0  0  0  0  0  0
   22.1050  -21.5370    0.8900 H   0  0  0  0  0  0  0  0  0  0  0  0
   22.1050  -21.5370   -0.8900 H   0  0  0  0  0  0  0  0  0  0  0  0
   22.2250  -19.1480    0.8900 H   0  0  0  0  0  0  0  0  0  0  0  0
   22.2250  -19.1480   -0.8900 H   0  0  0  0  0  0  0  0  0  0  0  0
   23.6220  -19.8270    0.0000 H   0  0  0  0  0  0  0  0  0  0  0  0
  1  2  1  0  0  0  0
  1 15  1  0  0  0  0
  1 16  1  0  0  0  0
  1 17  1  0  0  0  0
  2  3  1  0  0  0  0
  2 18  1  0  0  0  0
  2 19  1  0  0  0  0
  3  4  1  0  0  0  0
  4  5  1  0  0  0  0
  4 20  1  0  0  0  0
  4 21  1  0  0  0  0
  5  6  1  0  0  0  0
  5 22  1  0  0  0  0
  5 23  1  0  0  0  0
  6  7  1  0  0  0  0
  7  8  1  0  0  0  0
  7 24  1  0  0  0  0
  7 25  1  0  0  0  0
  8  9  1  0  0  0  0
  8 26  1  0  0  0  0
  8 27  1  0  0  0  0
  9 10  1  0  0  0  0
 10 11  1  0  0  0  0
 10 28  1  0  0  0  0
 10 29  1  0  0  0  0
 11 12  1  0  0  0  0
 11 30  1  0  0  0  0
 11 31  1  0  0  0  0
 12 13  1  0  0  0  0
 13 14  1  0  0  0  0
 13 32  1  0  0  0  0
 13 33  1  0  0  0  0
 14 34  1  0  0  0  0
 14 35  1  0  0  0  0
 14 36  1  0  0  0  0
M  END
