4qnq_48.pdb
  MOE2019           3D

 11 10  0  0  0  0  0  0  0  0999 V2000
    9.7470  -15.3170    0.0000 C   0  0  0  0  0  0  0  0  0  0  0  0
    8.4480  -14.5670    0.0000 C   0  0  0  0  0  0  0  0  0  0  0  0
    7.1490  -15.3170    0.0000 C   0  0  0  0  0  0  0  0  0  0  0  0
    9.7470  -15.9460   -0.8900 H   0  0  0  0  0  0  0  0  0  0  0  0
    9.7470  -15.9460    0.8900 H   0  0  0  0  0  0  0  0  0  0  0  0
   10.6170  -14.6600    0.0000 H   0  0  0  0  0  0  0  0  0  0  0  0
    8.4480  -13.9380    0.8900 H   0  0  0  0  0  0  0  0  0  0  0  0
    8.4480  -13.9380   -0.8900 H   0  0  0  0  0  0  0  0  0  0  0  0
    7.1490  -15.9460    0.8900 H   0  0  0  0  0  0  0  0  0  0  0  0
    7.1490  -15.9460   -0.8900 H   0  0  0  0  0  0  0  0  0  0  0  0
    6.2790  -14.6600    0.0000 H   0  0  0  0  0  0  0  0  0  0  0  0
  1  2  1  0  0  0  0
  1  4  1  0  0  0  0
  1  5  1  0  0  0  0
  1  6  1  0  0  0  0
  2  3  1  0  0  0  0
  2  7  1  0  0  0  0
  2  8  1  0  0  0  0
  3  9  1  0  0  0  0
  3 10  1  0  0  0  0
  3 11  1  0  0  0  0
M  END
