4qnq_22.pdb
  MOE2019           3D

 26 25  0  0  0  0  0  0  0  0999 V2000
   12.6020   16.4640    0.0000 C   0  0  0  0  0  0  0  0  0  0  0  0
   11.1020   16.4640    0.0000 C   0  0  0  0  0  0  0  0  0  0  0  0
   10.3520   15.1650    0.0000 C   0  0  0  0  0  0  0  0  0  0  0  0
    8.8520   15.1650    0.0000 C   0  0  0  0  0  0  0  0  0  0  0  0
    8.1020   13.8660    0.0000 C   0  0  0  0  0  0  0  0  0  0  0  0
    6.6020   13.8660    0.0000 C   0  0  0  0  0  0  0  0  0  0  0  0
    5.8520   15.1650    0.0000 C   0  0  0  0  0  0  0  0  0  0  0  0
    4.3520   15.1650    0.0000 C   0  0  0  0  0  0  0  0  0  0  0  0
   12.9170   15.9190   -0.8900 H   0  0  0  0  0  0  0  0  0  0  0  0
   12.9170   15.9190    0.8900 H   0  0  0  0  0  0  0  0  0  0  0  0
   13.0260   17.4680    0.0000 H   0  0  0  0  0  0  0  0  0  0  0  0
   10.7870   17.0090    0.8900 H   0  0  0  0  0  0  0  0  0  0  0  0
   10.7870   17.0090   -0.8900 H   0  0  0  0  0  0  0  0  0  0  0  0
   10.6670   14.6200   -0.8900 H   0  0  0  0  0  0  0  0  0  0  0  0
   10.6670   14.6200    0.8900 H   0  0  0  0  0  0  0  0  0  0  0  0
    8.5370   15.7100    0.8900 H   0  0  0  0  0  0  0  0  0  0  0  0
    8.5370   15.7100   -0.8900 H   0  0  0  0  0  0  0  0  0  0  0  0
    8.4170   13.3210   -0.8900 H   0  0  0  0  0  0  0  0  0  0  0  0
    8.4170   13.3210    0.8900 H   0  0  0  0  0  0  0  0  0  0  0  0
    6.2870   13.3210    0.8900 H   0  0  0  0  0  0  0  0  0  0  0  0
    6.2870   13.3210   -0.8900 H   0  0  0  0  0  0  0  0  0  0  0  0
    6.1670   15.7100   -0.8900 H   0  0  0  0  0  0  0  0  0  0  0  0
    6.1670   15.7100    0.8900 H   0  0  0  0  0  0  0  0  0  0  0  0
    4.0370   14.6200    0.8900 H   0  0  0  0  0  0  0  0  0  0  0  0
    4.0370   14.6200   -0.8900 H   0  0  0  0  0  0  0  0  0  0  0  0
    3.9280   16.1690    0.0000 H   0  0  0  0  0  0  0  0  0  0  0  0
  1  2  1  0  0  0  0
  1  9  1  0  0  0  0
  1 10  1  0  0  0  0
  1 11  1  0  0  0  0
  2  3  1  0  0  0  0
  2 12  1  0  0  0  0
  2 13  1  0  0  0  0
  3  4  1  0  0  0  0
  3 14  1  0  0  0  0
  3 15  1  0  0  0  0
  4  5  1  0  0  0  0
  4 16  1  0  0  0  0
  4 17  1  0  0  0  0
  5  6  1  0  0  0  0
  5 18  1  0  0  0  0
  5 19  1  0  0  0  0
  6  7  1  0  0  0  0
  6 20  1  0  0  0  0
  6 21  1  0  0  0  0
  7  8  1  0  0  0  0
  7 22  1  0  0  0  0
  7 23  1  0  0  0  0
  8 24  1  0  0  0  0
  8 25  1  0  0  0  0
  8 26  1  0  0  0  0
M  END
