4qnq_18.pdb
  MOE2019           3D

 14 13  0  0  0  0  0  0  0  0999 V2000
   21.8450  -10.9330    0.0000 C   0  0  0  0  0  0  0  0  0  0  0  0
   21.8450  -12.4330    0.0000 C   0  0  0  0  0  0  0  0  0  0  0  0
   23.1440  -13.1830    0.0000 C   0  0  0  0  0  0  0  0  0  0  0  0
   23.1440  -14.6830    0.0000 C   0  0  0  0  0  0  0  0  0  0  0  0
   22.3900  -10.6180   -0.8900 H   0  0  0  0  0  0  0  0  0  0  0  0
   22.3900  -10.6180    0.8900 H   0  0  0  0  0  0  0  0  0  0  0  0
   20.8410  -10.5090    0.0000 H   0  0  0  0  0  0  0  0  0  0  0  0
   21.3000  -12.7480    0.8900 H   0  0  0  0  0  0  0  0  0  0  0  0
   21.3000  -12.7480   -0.8900 H   0  0  0  0  0  0  0  0  0  0  0  0
   23.6890  -12.8680   -0.8900 H   0  0  0  0  0  0  0  0  0  0  0  0
   23.6890  -12.8680    0.8900 H   0  0  0  0  0  0  0  0  0  0  0  0
   22.5990  -14.9980   -0.8900 H   0  0  0  0  0  0  0  0  0  0  0  0
   22.5990  -14.9980    0.8900 H   0  0  0  0  0  0  0  0  0  0  0  0
   24.1480  -15.1070    0.0000 H   0  0  0  0  0  0  0  0  0  0  0  0
  1  2  1  0  0  0  0
  1  5  1  0  0  0  0
  1  6  1  0  0  0  0
  1  7  1  0  0  0  0
  2  3  1  0  0  0  0
  2  8  1  0  0  0  0
  2  9  1  0  0  0  0
  3  4  1  0  0  0  0
  3 10  1  0  0  0  0
  3 11  1  0  0  0  0
  4 12  1  0  0  0  0
  4 13  1  0  0  0  0
  4 14  1  0  0  0  0
M  END
