4qnq_27.pdb
  MOE2019           3D

 11 10  0  0  0  0  0  0  0  0999 V2000
    2.5170   17.9080    0.0000 C   0  0  0  0  0  0  0  0  0  0  0  0
    1.7670   16.6090    0.0000 C   0  0  0  0  0  0  0  0  0  0  0  0
    0.2670   16.6090    0.0000 C   0  0  0  0  0  0  0  0  0  0  0  0
    2.2020   18.4530    0.8900 H   0  0  0  0  0  0  0  0  0  0  0  0
    2.2020   18.4530   -0.8900 H   0  0  0  0  0  0  0  0  0  0  0  0
    3.5990   17.7740    0.0000 H   0  0  0  0  0  0  0  0  0  0  0  0
    2.0820   16.0640    0.8900 H   0  0  0  0  0  0  0  0  0  0  0  0
    2.0820   16.0640   -0.8900 H   0  0  0  0  0  0  0  0  0  0  0  0
   -0.0480   17.1540   -0.8900 H   0  0  0  0  0  0  0  0  0  0  0  0
   -0.0480   17.1540    0.8900 H   0  0  0  0  0  0  0  0  0  0  0  0
   -0.1570   15.6050    0.0000 H   0  0  0  0  0  0  0  0  0  0  0  0
  1  2  1  0  0  0  0
  1  4  1  0  0  0  0
  1  5  1  0  0  0  0
  1  6  1  0  0  0  0
  2  3  1  0  0  0  0
  2  7  1  0  0  0  0
  2  8  1  0  0  0  0
  3  9  1  0  0  0  0
  3 10  1  0  0  0  0
  3 11  1  0  0  0  0
M  END
