4qnq_39.pdb
  MOE2019           3D

 15 14  0  0  0  0  0  0  0  0999 V2000
   27.0670   10.4370    0.0000 C   0  0  0  0  0  0  0  0  0  0  0  0
   28.3660   11.1870    0.0000 C   0  0  0  0  0  0  0  0  0  0  0  0
   29.6650   10.4370    0.0000 O   0  0  0  0  0  0  0  0  0  0  0  0
   30.9640   11.1870    0.0000 C   0  0  0  0  0  0  0  0  0  0  0  0
   32.2630   10.4370    0.0000 C   0  0  0  0  0  0  0  0  0  0  0  0
   27.0670    9.8080    0.8900 H   0  0  0  0  0  0  0  0  0  0  0  0
   27.0670    9.8080   -0.8900 H   0  0  0  0  0  0  0  0  0  0  0  0
   26.1970   11.0940    0.0000 H   0  0  0  0  0  0  0  0  0  0  0  0
   28.3660   11.8160    0.8900 H   0  0  0  0  0  0  0  0  0  0  0  0
   28.3660   11.8160   -0.8900 H   0  0  0  0  0  0  0  0  0  0  0  0
   30.9640   11.8160   -0.8900 H   0  0  0  0  0  0  0  0  0  0  0  0
   30.9640   11.8160    0.8900 H   0  0  0  0  0  0  0  0  0  0  0  0
   32.2630    9.8080   -0.8900 H   0  0  0  0  0  0  0  0  0  0  0  0
   32.2630    9.8080    0.8900 H   0  0  0  0  0  0  0  0  0  0  0  0
   33.1330   11.0940    0.0000 H   0  0  0  0  0  0  0  0  0  0  0  0
  1  2  1  0  0  0  0
  1  6  1  0  0  0  0
  1  7  1  0  0  0  0
  1  8  1  0  0  0  0
  2  3  1  0  0  0  0
  2  9  1  0  0  0  0
  2 10  1  0  0  0  0
  3  4  1  0  0  0  0
  4  5  1  0  0  0  0
  4 11  1  0  0  0  0
  4 12  1  0  0  0  0
  5 13  1  0  0  0  0
  5 14  1  0  0  0  0
  5 15  1  0  0  0  0
M  END
