4qnq_64.pdb
  MOE2019           3D

 38 38  0  0  0  0  0  0  0  0999 V2000
   21.4930  -27.7480    0.0000 C   0  0  0  0  0  0  0  0  0  0  0  0
   22.2110  -29.0650    0.0000 C   0  0  0  0  0  0  0  0  0  0  0  0
   23.7110  -29.1020    0.0000 N   0  0  0  0  0  0  0  0  0  0  0  0
   24.5620  -30.3370    0.0000 N   0  0  0  0  0  0  0  0  0  0  0  0
   26.0000  -29.9090    0.0000 N   0  0  0  0  0  0  0  0  0  0  0  0
   26.0370  -28.4090    0.0000 C   0  0  0  0  0  0  0  0  0  0  0  0
   27.2720  -27.5580    0.0000 C   0  0  0  0  0  0  0  0  0  0  0  0
   28.6260  -28.2020    0.0000 O   0  0  0  0  0  0  0  0  0  0  0  0
   29.8610  -27.3500    0.0000 C   0  0  0  0  0  0  0  0  0  0  0  0
   31.2160  -27.9940    0.0000 C   0  0  0  0  0  0  0  0  0  0  0  0
   32.4510  -27.1430    0.0000 O   0  0  0  0  0  0  0  0  0  0  0  0
   33.8060  -27.7860    0.0000 C   0  0  0  0  0  0  0  0  0  0  0  0
   35.0410  -26.9350    0.0000 C   0  0  0  0  0  0  0  0  0  0  0  0
   36.3960  -27.5790    0.0000 O   0  0  0  0  0  0  0  0  0  0  0  0
   37.6310  -26.7270    0.0000 C   0  0  0  0  0  0  0  0  0  0  0  0
   38.9860  -27.3710    0.0000 C   0  0  0  0  0  0  0  0  0  0  0  0
   24.6220  -27.9110    0.0000 C   0  0  0  0  0  0  0  0  0  0  0  0
   21.8210  -27.2110    0.8900 H   0  0  0  0  0  0  0  0  0  0  0  0
   21.8210  -27.2110   -0.8900 H   0  0  0  0  0  0  0  0  0  0  0  0
   20.4080  -27.8560    0.0000 H   0  0  0  0  0  0  0  0  0  0  0  0
   21.8830  -29.6020   -0.8900 H   0  0  0  0  0  0  0  0  0  0  0  0
   21.8830  -29.6020    0.8900 H   0  0  0  0  0  0  0  0  0  0  0  0
   27.2220  -26.9310    0.8900 H   0  0  0  0  0  0  0  0  0  0  0  0
   27.2220  -26.9310   -0.8900 H   0  0  0  0  0  0  0  0  0  0  0  0
   29.8110  -26.7230   -0.8900 H   0  0  0  0  0  0  0  0  0  0  0  0
   29.8110  -26.7230    0.8900 H   0  0  0  0  0  0  0  0  0  0  0  0
   31.2660  -28.6210   -0.8900 H   0  0  0  0  0  0  0  0  0  0  0  0
   31.2660  -28.6210    0.8900 H   0  0  0  0  0  0  0  0  0  0  0  0
   33.8560  -28.4130    0.8900 H   0  0  0  0  0  0  0  0  0  0  0  0
   33.8560  -28.4130   -0.8900 H   0  0  0  0  0  0  0  0  0  0  0  0
   34.9910  -26.3080    0.8900 H   0  0  0  0  0  0  0  0  0  0  0  0
   34.9910  -26.3080   -0.8900 H   0  0  0  0  0  0  0  0  0  0  0  0
   37.5810  -26.1000   -0.8900 H   0  0  0  0  0  0  0  0  0  0  0  0
   37.5810  -26.1000    0.8900 H   0  0  0  0  0  0  0  0  0  0  0  0
   39.0360  -27.9980   -0.8900 H   0  0  0  0  0  0  0  0  0  0  0  0
   39.0360  -27.9980    0.8900 H   0  0  0  0  0  0  0  0  0  0  0  0
   39.8010  -26.6470    0.0000 H   0  0  0  0  0  0  0  0  0  0  0  0
   24.3130  -26.8760    0.0000 H   0  0  0  0  0  0  0  0  0  0  0  0
  1  2  1  0  0  0  0
  1 18  1  0  0  0  0
  1 19  1  0  0  0  0
  1 20  1  0  0  0  0
  2  3  1  0  0  0  0
  2 21  1  0  0  0  0
  2 22  1  0  0  0  0
  3  4  1  0  0  0  0
  3 17  1  0  0  0  0
  4  5  2  0  0  0  0
  5  6  1  0  0  0  0
  6  7  1  0  0  0  0
  6 17  2  0  0  0  0
  7  8  1  0  0  0  0
  7 23  1  0  0  0  0
  7 24  1  0  0  0  0
  8  9  1  0  0  0  0
  9 10  1  0  0  0  0
  9 25  1  0  0  0  0
  9 26  1  0  0  0  0
 10 11  1  0  0  0  0
 10 27  1  0  0  0  0
 10 28  1  0  0  0  0
 11 12  1  0  0  0  0
 12 13  1  0  0  0  0
 12 29  1  0  0  0  0
 12 30  1  0  0  0  0
 13 14  1  0  0  0  0
 13 31  1  0  0  0  0
 13 32  1  0  0  0  0
 14 15  1  0  0  0  0
 15 16  1  0  0  0  0
 15 33  1  0  0  0  0
 15 34  1  0  0  0  0
 16 35  1  0  0  0  0
 16 36  1  0  0  0  0
 16 37  1  0  0  0  0
 17 38  1  0  0  0  0
M  END
