4r6e_1.pdb
  MOE2019           3D

 42 42  0  0  0  0  0  0  0  0999 V2000
   31.0730   -6.7800    0.0000 C   0  0  0  0  0  0  0  0  0  0  0  0
   32.1500   -6.7060    0.0000 H   0  0  0  0  0  0  0  0  0  0  0  0
   30.2760   -8.0510    0.0000 N   0  0  0  0  0  0  0  0  0  0  0  0
   28.8210   -7.6860    0.0000 N   0  0  0  0  0  0  0  0  0  0  0  0
   28.7180   -6.1900    0.0000 N   0  0  0  0  0  0  0  0  0  0  0  0
   27.4470   -5.3930    0.0000 C   0  0  0  0  0  0  0  0  0  0  0  0
   26.1220   -6.0950    0.0000 C   0  0  0  0  0  0  0  0  0  0  0  0
   24.8510   -5.2990    0.0000 O   0  0  0  0  0  0  0  0  0  0  0  0
   23.5260   -6.0010    0.0000 C   0  0  0  0  0  0  0  0  0  0  0  0
   22.2550   -5.2050    0.0000 C   0  0  0  0  0  0  0  0  0  0  0  0
   20.9290   -5.9070    0.0000 O   0  0  0  0  0  0  0  0  0  0  0  0
   19.6580   -5.1100    0.0000 C   0  0  0  0  0  0  0  0  0  0  0  0
   18.3330   -5.8130    0.0000 C   0  0  0  0  0  0  0  0  0  0  0  0
   17.0620   -5.0160    0.0000 O   0  0  0  0  0  0  0  0  0  0  0  0
   15.7370   -5.7190    0.0000 C   0  0  0  0  0  0  0  0  0  0  0  0
   14.4660   -4.9220    0.0000 C   0  0  0  0  0  0  0  0  0  0  0  0
   13.1400   -5.6240    0.0000 O   0  0  0  0  0  0  0  0  0  0  0  0
   11.8690   -4.8280    0.0000 C   0  0  0  0  0  0  0  0  0  0  0  0
   10.5440   -5.5300    0.0000 C   0  0  0  0  0  0  0  0  0  0  0  0
   30.1100   -5.6300    0.0000 C   0  0  0  0  0  0  0  0  0  0  0  0
   27.4700   -4.7640   -0.8900 H   0  0  0  0  0  0  0  0  0  0  0  0
   27.4700   -4.7640    0.8900 H   0  0  0  0  0  0  0  0  0  0  0  0
   26.0990   -6.7240    0.8900 H   0  0  0  0  0  0  0  0  0  0  0  0
   26.0990   -6.7240   -0.8900 H   0  0  0  0  0  0  0  0  0  0  0  0
   23.5030   -6.6300    0.8900 H   0  0  0  0  0  0  0  0  0  0  0  0
   23.5030   -6.6300   -0.8900 H   0  0  0  0  0  0  0  0  0  0  0  0
   22.2780   -4.5760   -0.8900 H   0  0  0  0  0  0  0  0  0  0  0  0
   22.2780   -4.5760    0.8900 H   0  0  0  0  0  0  0  0  0  0  0  0
   19.6810   -4.4810   -0.8900 H   0  0  0  0  0  0  0  0  0  0  0  0
   19.6810   -4.4810    0.8900 H   0  0  0  0  0  0  0  0  0  0  0  0
   18.3100   -6.4420    0.8900 H   0  0  0  0  0  0  0  0  0  0  0  0
   18.3100   -6.4420   -0.8900 H   0  0  0  0  0  0  0  0  0  0  0  0
   15.7140   -6.3480    0.8900 H   0  0  0  0  0  0  0  0  0  0  0  0
   15.7140   -6.3480   -0.8900 H   0  0  0  0  0  0  0  0  0  0  0  0
   14.4890   -4.2930   -0.8900 H   0  0  0  0  0  0  0  0  0  0  0  0
   14.4890   -4.2930    0.8900 H   0  0  0  0  0  0  0  0  0  0  0  0
   11.8920   -4.1990   -0.8900 H   0  0  0  0  0  0  0  0  0  0  0  0
   11.8920   -4.1990    0.8900 H   0  0  0  0  0  0  0  0  0  0  0  0
   10.5210   -6.1590    0.8900 H   0  0  0  0  0  0  0  0  0  0  0  0
    9.6990   -4.8410    0.0000 H   0  0  0  0  0  0  0  0  0  0  0  0
   10.5210   -6.1590   -0.8900 H   0  0  0  0  0  0  0  0  0  0  0  0
   30.3730   -4.5820    0.0000 H   0  0  0  0  0  0  0  0  0  0  0  0
  1  2  1  0  0  0  0
  1  3  1  0  0  0  0
  1 20  2  0  0  0  0
  3  4  2  0  0  0  0
  4  5  1  0  0  0  0
  5  6  1  0  0  0  0
  5 20  1  0  0  0  0
  6  7  1  0  0  0  0
  6 21  1  0  0  0  0
  6 22  1  0  0  0  0
  7  8  1  0  0  0  0
  7 23  1  0  0  0  0
  7 24  1  0  0  0  0
  8  9  1  0  0  0  0
  9 10  1  0  0  0  0
  9 25  1  0  0  0  0
  9 26  1  0  0  0  0
 10 11  1  0  0  0  0
 10 27  1  0  0  0  0
 10 28  1  0  0  0  0
 11 12  1  0  0  0  0
 12 13  1  0  0  0  0
 12 29  1  0  0  0  0
 12 30  1  0  0  0  0
 13 14  1  0  0  0  0
 13 31  1  0  0  0  0
 13 32  1  0  0  0  0
 14 15  1  0  0  0  0
 15 16  1  0  0  0  0
 15 33  1  0  0  0  0
 15 34  1  0  0  0  0
 16 17  1  0  0  0  0
 16 35  1  0  0  0  0
 16 36  1  0  0  0  0
 17 18  1  0  0  0  0
 18 19  1  0  0  0  0
 18 37  1  0  0  0  0
 18 38  1  0  0  0  0
 19 39  1  0  0  0  0
 19 40  1  0  0  0  0
 19 41  1  0  0  0  0
 20 42  1  0  0  0  0
M  END
