4xuf_8.pdb
  MOE2019           3D

 51 51  0  0  0  0  0  0  0  0999 V2000
  -18.5240   12.2230    0.0000 O   0  0  0  0  0  0  0  0  0  0  0  0
  -18.8070   12.7050   -0.7800 H   0  0  0  0  0  0  0  0  0  0  0  0
  -17.0240   12.1990    0.0000 C   0  0  0  0  0  0  0  0  0  0  0  0
  -16.2530   13.4850    0.0000 C   0  0  0  0  0  0  0  0  0  0  0  0
  -14.7540   13.4610    0.0000 N   0  0  0  0  0  0  0  0  0  0  0  0
  -13.9830   14.7480    0.0000 C   0  0  0  0  0  0  0  0  0  0  0  0
  -12.4830   14.7230    0.0000 C   0  0  0  0  0  0  0  0  0  0  0  0
  -11.7540   13.4120    0.0000 N   0  3  0  0  0  0  0  0  0  0  0  0
  -10.2540   13.3880    0.0000 C   0  0  0  0  0  0  0  0  0  0  0  0
   -9.5250   12.0770    0.0000 C   0  0  0  0  0  0  0  0  0  0  0  0
   -8.0260   12.0520    0.0000 O   0  0  0  0  0  0  0  0  0  0  0  0
   -7.2970   10.7410    0.0000 C   0  0  0  0  0  0  0  0  0  0  0  0
   -5.7970   10.7170    0.0000 C   0  0  0  0  0  0  0  0  0  0  0  0
   -5.0680    9.4060    0.0000 O   0  0  0  0  0  0  0  0  0  0  0  0
   -3.5690    9.3810    0.0000 C   0  0  0  0  0  0  0  0  0  0  0  0
   -2.8400    8.0700    0.0000 C   0  0  0  0  0  0  0  0  0  0  0  0
   -1.3400    8.0460    0.0000 N   0  0  0  0  0  0  0  0  0  0  0  0
   -0.6110    6.7350    0.0000 C   0  0  0  0  0  0  0  0  0  0  0  0
   -1.3820    5.4480    0.0000 O   0  0  0  0  0  0  0  0  0  0  0  0
    0.8890    6.7100    0.0000 C   0  0  0  0  0  0  0  0  0  0  0  0
  -12.5250   12.1250    0.0000 C   0  0  0  0  0  0  0  0  0  0  0  0
  -14.0250   12.1500    0.0000 C   0  0  0  0  0  0  0  0  0  0  0  0
  -16.7180   11.6490   -0.8900 H   0  0  0  0  0  0  0  0  0  0  0  0
  -16.7180   11.6490    0.8900 H   0  0  0  0  0  0  0  0  0  0  0  0
  -16.5590   14.0350    0.8900 H   0  0  0  0  0  0  0  0  0  0  0  0
  -16.5590   14.0350   -0.8900 H   0  0  0  0  0  0  0  0  0  0  0  0
  -14.2890   15.2980    0.8900 H   0  0  0  0  0  0  0  0  0  0  0  0
  -14.2890   15.2980   -0.8900 H   0  0  0  0  0  0  0  0  0  0  0  0
  -12.1590   15.2630    0.8900 H   0  0  0  0  0  0  0  0  0  0  0  0
  -12.1590   15.2630   -0.8900 H   0  0  0  0  0  0  0  0  0  0  0  0
  -11.7540   13.4120    1.0100 H   0  0  0  0  0  0  0  0  0  0  0  0
   -9.9310   13.9280    0.8900 H   0  0  0  0  0  0  0  0  0  0  0  0
   -9.9310   13.9280   -0.8900 H   0  0  0  0  0  0  0  0  0  0  0  0
   -9.8490   11.5370   -0.8900 H   0  0  0  0  0  0  0  0  0  0  0  0
   -9.8490   11.5370    0.8900 H   0  0  0  0  0  0  0  0  0  0  0  0
   -7.6200   10.2010   -0.8900 H   0  0  0  0  0  0  0  0  0  0  0  0
   -7.6200   10.2010    0.8900 H   0  0  0  0  0  0  0  0  0  0  0  0
   -5.4740   11.2570    0.8900 H   0  0  0  0  0  0  0  0  0  0  0  0
   -5.4740   11.2570   -0.8900 H   0  0  0  0  0  0  0  0  0  0  0  0
   -3.2450    9.9210    0.8900 H   0  0  0  0  0  0  0  0  0  0  0  0
   -3.2450    9.9210   -0.8900 H   0  0  0  0  0  0  0  0  0  0  0  0
   -3.1630    7.5300   -0.8900 H   0  0  0  0  0  0  0  0  0  0  0  0
   -3.1630    7.5300    0.8900 H   0  0  0  0  0  0  0  0  0  0  0  0
   -0.8210    8.9120    0.0000 H   0  0  0  0  0  0  0  0  0  0  0  0
    1.2130    7.2500    0.8900 H   0  0  0  0  0  0  0  0  0  0  0  0
    1.2960    5.6990    0.0000 H   0  0  0  0  0  0  0  0  0  0  0  0
    1.2130    7.2500   -0.8900 H   0  0  0  0  0  0  0  0  0  0  0  0
  -12.2190   11.5750    0.8900 H   0  0  0  0  0  0  0  0  0  0  0  0
  -12.2190   11.5750   -0.8900 H   0  0  0  0  0  0  0  0  0  0  0  0
  -14.3490   11.6100   -0.8900 H   0  0  0  0  0  0  0  0  0  0  0  0
  -14.3490   11.6100    0.8900 H   0  0  0  0  0  0  0  0  0  0  0  0
  1  2  1  0  0  0  0
  1  3  1  0  0  0  0
  3  4  1  0  0  0  0
  3 23  1  0  0  0  0
  3 24  1  0  0  0  0
  4  5  1  0  0  0  0
  4 25  1  0  0  0  0
  4 26  1  0  0  0  0
  5  6  1  0  0  0  0
  5 22  1  0  0  0  0
  6  7  1  0  0  0  0
  6 27  1  0  0  0  0
  6 28  1  0  0  0  0
  7  8  1  0  0  0  0
  7 29  1  0  0  0  0
  7 30  1  0  0  0  0
  8  9  1  0  0  0  0
  8 21  1  0  0  0  0
  8 31  1  0  0  0  0
  9 10  1  0  0  0  0
  9 32  1  0  0  0  0
  9 33  1  0  0  0  0
 10 11  1  0  0  0  0
 10 34  1  0  0  0  0
 10 35  1  0  0  0  0
 11 12  1  0  0  0  0
 12 13  1  0  0  0  0
 12 36  1  0  0  0  0
 12 37  1  0  0  0  0
 13 14  1  0  0  0  0
 13 38  1  0  0  0  0
 13 39  1  0  0  0  0
 14 15  1  0  0  0  0
 15 16  1  0  0  0  0
 15 40  1  0  0  0  0
 15 41  1  0  0  0  0
 16 17  1  0  0  0  0
 16 42  1  0  0  0  0
 16 43  1  0  0  0  0
 17 18  1  0  0  0  0
 17 44  1  0  0  0  0
 18 19  2  0  0  0  0
 18 20  1  0  0  0  0
 20 45  1  0  0  0  0
 20 46  1  0  0  0  0
 20 47  1  0  0  0  0
 21 22  1  0  0  0  0
 21 48  1  0  0  0  0
 21 49  1  0  0  0  0
 22 50  1  0  0  0  0
 22 51  1  0  0  0  0
M  CHG  1   8   1
M  END
