4xuf_9.pdb
  MOE2019           3D

 37 36  0  0  0  0  0  0  0  0999 V2000
  -17.5540  -15.2520    0.0000 O   0  0  0  0  0  0  0  0  0  0  0  0
  -17.5570  -15.8110    0.7800 H   0  0  0  0  0  0  0  0  0  0  0  0
  -16.2680  -14.4800    0.0000 C   0  0  0  0  0  0  0  0  0  0  0  0
  -14.9560  -15.2080    0.0000 C   0  0  0  0  0  0  0  0  0  0  0  0
  -13.6700  -14.4360    0.0000 O   0  0  0  0  0  0  0  0  0  0  0  0
  -12.3580  -15.1640    0.0000 C   0  0  0  0  0  0  0  0  0  0  0  0
  -11.0720  -14.3920    0.0000 C   0  0  0  0  0  0  0  0  0  0  0  0
   -9.7610  -15.1200    0.0000 O   0  0  0  0  0  0  0  0  0  0  0  0
   -8.4740  -14.3490    0.0000 C   0  0  0  0  0  0  0  0  0  0  0  0
   -7.1630  -15.0770    0.0000 C   0  0  0  0  0  0  0  0  0  0  0  0
   -5.8770  -14.3050    0.0000 O   0  0  0  0  0  0  0  0  0  0  0  0
   -4.5650  -15.0330    0.0000 C   0  0  0  0  0  0  0  0  0  0  0  0
   -3.2790  -14.2610    0.0000 C   0  0  0  0  0  0  0  0  0  0  0  0
   -1.9680  -14.9890    0.0000 N   0  0  0  0  0  0  0  0  0  0  0  0
   -0.6810  -14.2170    0.0000 C   0  0  0  0  0  0  0  0  0  0  0  0
   -0.7070  -12.7170    0.0000 O   0  0  0  0  0  0  0  0  0  0  0  0
    0.6300  -14.9450    0.0000 C   0  0  0  0  0  0  0  0  0  0  0  0
  -16.2790  -13.8510    0.8900 H   0  0  0  0  0  0  0  0  0  0  0  0
  -16.2790  -13.8510   -0.8900 H   0  0  0  0  0  0  0  0  0  0  0  0
  -14.9450  -15.8370   -0.8900 H   0  0  0  0  0  0  0  0  0  0  0  0
  -14.9450  -15.8370    0.8900 H   0  0  0  0  0  0  0  0  0  0  0  0
  -12.3470  -15.7930   -0.8900 H   0  0  0  0  0  0  0  0  0  0  0  0
  -12.3470  -15.7930    0.8900 H   0  0  0  0  0  0  0  0  0  0  0  0
  -11.0830  -13.7630    0.8900 H   0  0  0  0  0  0  0  0  0  0  0  0
  -11.0830  -13.7630   -0.8900 H   0  0  0  0  0  0  0  0  0  0  0  0
   -8.4840  -13.7200    0.8900 H   0  0  0  0  0  0  0  0  0  0  0  0
   -8.4840  -13.7200   -0.8900 H   0  0  0  0  0  0  0  0  0  0  0  0
   -7.1520  -15.7060   -0.8900 H   0  0  0  0  0  0  0  0  0  0  0  0
   -7.1520  -15.7060    0.8900 H   0  0  0  0  0  0  0  0  0  0  0  0
   -4.5540  -15.6620   -0.8900 H   0  0  0  0  0  0  0  0  0  0  0  0
   -4.5540  -15.6620    0.8900 H   0  0  0  0  0  0  0  0  0  0  0  0
   -3.2900  -13.6320    0.8900 H   0  0  0  0  0  0  0  0  0  0  0  0
   -3.2900  -13.6320   -0.8900 H   0  0  0  0  0  0  0  0  0  0  0  0
   -1.9510  -15.9990    0.0000 H   0  0  0  0  0  0  0  0  0  0  0  0
    0.6410  -15.5740   -0.8900 H   0  0  0  0  0  0  0  0  0  0  0  0
    1.4880  -14.2730    0.0000 H   0  0  0  0  0  0  0  0  0  0  0  0
    0.6410  -15.5740    0.8900 H   0  0  0  0  0  0  0  0  0  0  0  0
  1  2  1  0  0  0  0
  1  3  1  0  0  0  0
  3  4  1  0  0  0  0
  3 18  1  0  0  0  0
  3 19  1  0  0  0  0
  4  5  1  0  0  0  0
  4 20  1  0  0  0  0
  4 21  1  0  0  0  0
  5  6  1  0  0  0  0
  6  7  1  0  0  0  0
  6 22  1  0  0  0  0
  6 23  1  0  0  0  0
  7  8  1  0  0  0  0
  7 24  1  0  0  0  0
  7 25  1  0  0  0  0
  8  9  1  0  0  0  0
  9 10  1  0  0  0  0
  9 26  1  0  0  0  0
  9 27  1  0  0  0  0
 10 11  1  0  0  0  0
 10 28  1  0  0  0  0
 10 29  1  0  0  0  0
 11 12  1  0  0  0  0
 12 13  1  0  0  0  0
 12 30  1  0  0  0  0
 12 31  1  0  0  0  0
 13 14  1  0  0  0  0
 13 32  1  0  0  0  0
 13 33  1  0  0  0  0
 14 15  1  0  0  0  0
 14 34  1  0  0  0  0
 15 16  2  0  0  0  0
 15 17  1  0  0  0  0
 17 35  1  0  0  0  0
 17 36  1  0  0  0  0
 17 37  1  0  0  0  0
M  END
