4xuf_4.pdb
  MOE2019           3D

 30 29  0  0  0  0  0  0  0  0999 V2000
  -11.7570  -15.5990    0.0000 O   0  0  0  0  0  0  0  0  0  0  0  0
  -11.4800  -16.0840    0.7810 H   0  0  0  0  0  0  0  0  0  0  0  0
  -11.0300  -14.2860    0.0000 C   0  0  0  0  0  0  0  0  0  0  0  0
   -9.5300  -14.2600    0.0000 C   0  0  0  0  0  0  0  0  0  0  0  0
   -8.8040  -12.9470    0.0000 O   0  0  0  0  0  0  0  0  0  0  0  0
   -7.3040  -12.9200    0.0000 C   0  0  0  0  0  0  0  0  0  0  0  0
   -6.5770  -11.6080    0.0000 C   0  0  0  0  0  0  0  0  0  0  0  0
   -5.0780  -11.5810    0.0000 O   0  0  0  0  0  0  0  0  0  0  0  0
   -4.3510  -10.2690    0.0000 C   0  0  0  0  0  0  0  0  0  0  0  0
   -2.8510  -10.2420    0.0000 C   0  0  0  0  0  0  0  0  0  0  0  0
   -2.1250   -8.9300    0.0000 N   0  0  0  0  0  0  0  0  0  0  0  0
   -0.6250   -8.9030    0.0000 C   0  0  0  0  0  0  0  0  0  0  0  0
    0.1480  -10.1880    0.0000 O   0  0  0  0  0  0  0  0  0  0  0  0
    0.1020   -7.5910    0.0000 C   0  0  0  0  0  0  0  0  0  0  0  0
  -11.3540  -13.7470    0.8900 H   0  0  0  0  0  0  0  0  0  0  0  0
  -11.3540  -13.7470   -0.8900 H   0  0  0  0  0  0  0  0  0  0  0  0
   -9.2060  -14.7990   -0.8900 H   0  0  0  0  0  0  0  0  0  0  0  0
   -9.2060  -14.7990    0.8900 H   0  0  0  0  0  0  0  0  0  0  0  0
   -6.9800  -13.4590   -0.8900 H   0  0  0  0  0  0  0  0  0  0  0  0
   -6.9800  -13.4590    0.8900 H   0  0  0  0  0  0  0  0  0  0  0  0
   -6.9010  -11.0690    0.8900 H   0  0  0  0  0  0  0  0  0  0  0  0
   -6.9010  -11.0690   -0.8900 H   0  0  0  0  0  0  0  0  0  0  0  0
   -4.6750   -9.7300    0.8900 H   0  0  0  0  0  0  0  0  0  0  0  0
   -4.6750   -9.7300   -0.8900 H   0  0  0  0  0  0  0  0  0  0  0  0
   -2.5270  -10.7810   -0.8900 H   0  0  0  0  0  0  0  0  0  0  0  0
   -2.5270  -10.7810    0.8900 H   0  0  0  0  0  0  0  0  0  0  0  0
   -2.6460   -8.0650    0.0000 H   0  0  0  0  0  0  0  0  0  0  0  0
   -0.2220   -7.0520    0.8900 H   0  0  0  0  0  0  0  0  0  0  0  0
    1.1860   -7.7060    0.0000 H   0  0  0  0  0  0  0  0  0  0  0  0
   -0.2220   -7.0520   -0.8900 H   0  0  0  0  0  0  0  0  0  0  0  0
  1  2  1  0  0  0  0
  1  3  1  0  0  0  0
  3  4  1  0  0  0  0
  3 15  1  0  0  0  0
  3 16  1  0  0  0  0
  4  5  1  0  0  0  0
  4 17  1  0  0  0  0
  4 18  1  0  0  0  0
  5  6  1  0  0  0  0
  6  7  1  0  0  0  0
  6 19  1  0  0  0  0
  6 20  1  0  0  0  0
  7  8  1  0  0  0  0
  7 21  1  0  0  0  0
  7 22  1  0  0  0  0
  8  9  1  0  0  0  0
  9 10  1  0  0  0  0
  9 23  1  0  0  0  0
  9 24  1  0  0  0  0
 10 11  1  0  0  0  0
 10 25  1  0  0  0  0
 10 26  1  0  0  0  0
 11 12  1  0  0  0  0
 11 27  1  0  0  0  0
 12 13  2  0  0  0  0
 12 14  1  0  0  0  0
 14 28  1  0  0  0  0
 14 29  1  0  0  0  0
 14 30  1  0  0  0  0
M  END
