5e80_1.pdb
  MOE2019           3D

 26 25  0  0  0  0  0  0  0  0999 V2000
    2.0770   -4.8280    0.0000 C   0  0  0  0  0  0  0  0  0  0  0  0
    0.7780   -5.5780    0.0000 C   0  0  0  0  0  0  0  0  0  0  0  0
   -0.5210   -4.8280    0.0000 C   0  0  0  0  0  0  0  0  0  0  0  0
   -1.8200   -5.5780    0.0000 C   0  0  0  0  0  0  0  0  0  0  0  0
   -3.1190   -4.8280    0.0000 C   0  0  0  0  0  0  0  0  0  0  0  0
   -4.4180   -5.5780    0.0000 C   0  0  0  0  0  0  0  0  0  0  0  0
   -5.7170   -4.8280    0.0000 C   0  0  0  0  0  0  0  0  0  0  0  0
   -7.0160   -5.5780    0.0000 C   0  0  0  0  0  0  0  0  0  0  0  0
    2.0770   -4.1990   -0.8900 H   0  0  0  0  0  0  0  0  0  0  0  0
    2.9470   -5.4850    0.0000 H   0  0  0  0  0  0  0  0  0  0  0  0
    2.0770   -4.1990    0.8900 H   0  0  0  0  0  0  0  0  0  0  0  0
    0.7780   -6.2070    0.8900 H   0  0  0  0  0  0  0  0  0  0  0  0
    0.7780   -6.2070   -0.8900 H   0  0  0  0  0  0  0  0  0  0  0  0
   -0.5210   -4.1990   -0.8900 H   0  0  0  0  0  0  0  0  0  0  0  0
   -0.5210   -4.1990    0.8900 H   0  0  0  0  0  0  0  0  0  0  0  0
   -1.8200   -6.2070    0.8900 H   0  0  0  0  0  0  0  0  0  0  0  0
   -1.8200   -6.2070   -0.8900 H   0  0  0  0  0  0  0  0  0  0  0  0
   -3.1190   -4.1990   -0.8900 H   0  0  0  0  0  0  0  0  0  0  0  0
   -3.1190   -4.1990    0.8900 H   0  0  0  0  0  0  0  0  0  0  0  0
   -4.4180   -6.2070    0.8900 H   0  0  0  0  0  0  0  0  0  0  0  0
   -4.4180   -6.2070   -0.8900 H   0  0  0  0  0  0  0  0  0  0  0  0
   -5.7170   -4.1990   -0.8900 H   0  0  0  0  0  0  0  0  0  0  0  0
   -5.7170   -4.1990    0.8900 H   0  0  0  0  0  0  0  0  0  0  0  0
   -7.0160   -6.2070    0.8900 H   0  0  0  0  0  0  0  0  0  0  0  0
   -7.8860   -4.9210    0.0000 H   0  0  0  0  0  0  0  0  0  0  0  0
   -7.0160   -6.2070   -0.8900 H   0  0  0  0  0  0  0  0  0  0  0  0
  1  2  1  0  0  0  0
  1  9  1  0  0  0  0
  1 10  1  0  0  0  0
  1 11  1  0  0  0  0
  2  3  1  0  0  0  0
  2 12  1  0  0  0  0
  2 13  1  0  0  0  0
  3  4  1  0  0  0  0
  3 14  1  0  0  0  0
  3 15  1  0  0  0  0
  4  5  1  0  0  0  0
  4 16  1  0  0  0  0
  4 17  1  0  0  0  0
  5  6  1  0  0  0  0
  5 18  1  0  0  0  0
  5 19  1  0  0  0  0
  6  7  1  0  0  0  0
  6 20  1  0  0  0  0
  6 21  1  0  0  0  0
  7  8  1  0  0  0  0
  7 22  1  0  0  0  0
  7 23  1  0  0  0  0
  8 24  1  0  0  0  0
  8 25  1  0  0  0  0
  8 26  1  0  0  0  0
M  END
