5e80_3.pdb
  MOE2019           3D

 14 13  0  0  0  0  0  0  0  0999 V2000
    4.5840   -1.7810    0.0000 C   0  0  0  0  0  0  0  0  0  0  0  0
    3.0840   -1.7810    0.0000 C   0  0  0  0  0  0  0  0  0  0  0  0
    2.3340   -0.4820    0.0000 C   0  0  0  0  0  0  0  0  0  0  0  0
    0.8340   -0.4820    0.0000 C   0  0  0  0  0  0  0  0  0  0  0  0
    4.8990   -1.2360   -0.8900 H   0  0  0  0  0  0  0  0  0  0  0  0
    5.0080   -2.7850    0.0000 H   0  0  0  0  0  0  0  0  0  0  0  0
    4.8990   -1.2360    0.8900 H   0  0  0  0  0  0  0  0  0  0  0  0
    2.7690   -2.3260    0.8900 H   0  0  0  0  0  0  0  0  0  0  0  0
    2.7690   -2.3260   -0.8900 H   0  0  0  0  0  0  0  0  0  0  0  0
    2.6490    0.0630   -0.8900 H   0  0  0  0  0  0  0  0  0  0  0  0
    2.6490    0.0630    0.8900 H   0  0  0  0  0  0  0  0  0  0  0  0
    0.5190   -1.0270    0.8900 H   0  0  0  0  0  0  0  0  0  0  0  0
    0.4100    0.5220    0.0000 H   0  0  0  0  0  0  0  0  0  0  0  0
    0.5190   -1.0270   -0.8900 H   0  0  0  0  0  0  0  0  0  0  0  0
  1  2  1  0  0  0  0
  1  5  1  0  0  0  0
  1  6  1  0  0  0  0
  1  7  1  0  0  0  0
  2  3  1  0  0  0  0
  2  8  1  0  0  0  0
  2  9  1  0  0  0  0
  3  4  1  0  0  0  0
  3 10  1  0  0  0  0
  3 11  1  0  0  0  0
  4 12  1  0  0  0  0
  4 13  1  0  0  0  0
  4 14  1  0  0  0  0
M  END
