5e80_6.pdb
  MOE2019           3D

 23 22  0  0  0  0  0  0  0  0999 V2000
    2.8660   -3.9650    0.0000 C   0  0  0  0  0  0  0  0  0  0  0  0
    1.5670   -3.2150    0.0000 C   0  0  0  0  0  0  0  0  0  0  0  0
    0.2680   -3.9650    0.0000 C   0  0  0  0  0  0  0  0  0  0  0  0
   -1.0310   -3.2150    0.0000 C   0  0  0  0  0  0  0  0  0  0  0  0
   -2.3300   -3.9650    0.0000 C   0  0  0  0  0  0  0  0  0  0  0  0
   -3.6290   -3.2150    0.0000 C   0  0  0  0  0  0  0  0  0  0  0  0
   -4.9280   -3.9650    0.0000 C   0  0  0  0  0  0  0  0  0  0  0  0
    2.8660   -4.5940    0.8900 H   0  0  0  0  0  0  0  0  0  0  0  0
    3.7360   -3.3080    0.0000 H   0  0  0  0  0  0  0  0  0  0  0  0
    2.8660   -4.5940   -0.8900 H   0  0  0  0  0  0  0  0  0  0  0  0
    1.5670   -2.5860   -0.8900 H   0  0  0  0  0  0  0  0  0  0  0  0
    1.5670   -2.5860    0.8900 H   0  0  0  0  0  0  0  0  0  0  0  0
    0.2680   -4.5940    0.8900 H   0  0  0  0  0  0  0  0  0  0  0  0
    0.2680   -4.5940   -0.8900 H   0  0  0  0  0  0  0  0  0  0  0  0
   -1.0310   -2.5860   -0.8900 H   0  0  0  0  0  0  0  0  0  0  0  0
   -1.0310   -2.5860    0.8900 H   0  0  0  0  0  0  0  0  0  0  0  0
   -2.3300   -4.5940    0.8900 H   0  0  0  0  0  0  0  0  0  0  0  0
   -2.3300   -4.5940   -0.8900 H   0  0  0  0  0  0  0  0  0  0  0  0
   -3.6290   -2.5860   -0.8900 H   0  0  0  0  0  0  0  0  0  0  0  0
   -3.6290   -2.5860    0.8900 H   0  0  0  0  0  0  0  0  0  0  0  0
   -4.9280   -4.5940    0.8900 H   0  0  0  0  0  0  0  0  0  0  0  0
   -5.7980   -3.3080    0.0000 H   0  0  0  0  0  0  0  0  0  0  0  0
   -4.9280   -4.5940   -0.8900 H   0  0  0  0  0  0  0  0  0  0  0  0
  1  2  1  0  0  0  0
  1  8  1  0  0  0  0
  1  9  1  0  0  0  0
  1 10  1  0  0  0  0
  2  3  1  0  0  0  0
  2 11  1  0  0  0  0
  2 12  1  0  0  0  0
  3  4  1  0  0  0  0
  3 13  1  0  0  0  0
  3 14  1  0  0  0  0
  4  5  1  0  0  0  0
  4 15  1  0  0  0  0
  4 16  1  0  0  0  0
  5  6  1  0  0  0  0
  5 17  1  0  0  0  0
  5 18  1  0  0  0  0
  6  7  1  0  0  0  0
  6 19  1  0  0  0  0
  6 20  1  0  0  0  0
  7 21  1  0  0  0  0
  7 22  1  0  0  0  0
  7 23  1  0  0  0  0
M  END
