5e80_8.pdb
  MOE2019           3D

 35 34  0  0  0  0  0  0  0  0999 V2000
    6.7280    6.6540    0.0000 C   0  0  0  0  0  0  0  0  0  0  0  0
    5.4290    7.4040    0.0000 C   0  0  0  0  0  0  0  0  0  0  0  0
    4.1300    6.6540    0.0000 C   0  0  0  0  0  0  0  0  0  0  0  0
    2.8310    7.4040    0.0000 O   0  0  0  0  0  0  0  0  0  0  0  0
    1.5320    6.6540    0.0000 C   0  0  0  0  0  0  0  0  0  0  0  0
    0.2330    7.4040    0.0000 C   0  0  0  0  0  0  0  0  0  0  0  0
   -1.0660    6.6540    0.0000 O   0  0  0  0  0  0  0  0  0  0  0  0
   -2.3650    7.4040    0.0000 C   0  0  0  0  0  0  0  0  0  0  0  0
   -3.6640    6.6540    0.0000 C   0  0  0  0  0  0  0  0  0  0  0  0
   -4.9630    7.4040    0.0000 O   0  0  0  0  0  0  0  0  0  0  0  0
   -6.2620    6.6540    0.0000 C   0  0  0  0  0  0  0  0  0  0  0  0
   -7.5610    7.4040    0.0000 C   0  0  0  0  0  0  0  0  0  0  0  0
   -8.8600    6.6540    0.0000 C   0  0  0  0  0  0  0  0  0  0  0  0
    6.7280    6.0250    0.8900 H   0  0  0  0  0  0  0  0  0  0  0  0
    7.5980    7.3110    0.0000 H   0  0  0  0  0  0  0  0  0  0  0  0
    6.7280    6.0250   -0.8900 H   0  0  0  0  0  0  0  0  0  0  0  0
    5.4290    8.0330   -0.8900 H   0  0  0  0  0  0  0  0  0  0  0  0
    5.4290    8.0330    0.8900 H   0  0  0  0  0  0  0  0  0  0  0  0
    4.1300    6.0250    0.8900 H   0  0  0  0  0  0  0  0  0  0  0  0
    4.1300    6.0250   -0.8900 H   0  0  0  0  0  0  0  0  0  0  0  0
    1.5320    6.0250    0.8900 H   0  0  0  0  0  0  0  0  0  0  0  0
    1.5320    6.0250   -0.8900 H   0  0  0  0  0  0  0  0  0  0  0  0
    0.2330    8.0330   -0.8900 H   0  0  0  0  0  0  0  0  0  0  0  0
    0.2330    8.0330    0.8900 H   0  0  0  0  0  0  0  0  0  0  0  0
   -2.3650    8.0330   -0.8900 H   0  0  0  0  0  0  0  0  0  0  0  0
   -2.3650    8.0330    0.8900 H   0  0  0  0  0  0  0  0  0  0  0  0
   -3.6640    6.0250    0.8900 H   0  0  0  0  0  0  0  0  0  0  0  0
   -3.6640    6.0250   -0.8900 H   0  0  0  0  0  0  0  0  0  0  0  0
   -6.2620    6.0250    0.8900 H   0  0  0  0  0  0  0  0  0  0  0  0
   -6.2620    6.0250   -0.8900 H   0  0  0  0  0  0  0  0  0  0  0  0
   -7.5610    8.0330   -0.8900 H   0  0  0  0  0  0  0  0  0  0  0  0
   -7.5610    8.0330    0.8900 H   0  0  0  0  0  0  0  0  0  0  0  0
   -8.8600    6.0250    0.8900 H   0  0  0  0  0  0  0  0  0  0  0  0
   -9.7300    7.3110    0.0000 H   0  0  0  0  0  0  0  0  0  0  0  0
   -8.8600    6.0250   -0.8900 H   0  0  0  0  0  0  0  0  0  0  0  0
  1  2  1  0  0  0  0
  1 14  1  0  0  0  0
  1 15  1  0  0  0  0
  1 16  1  0  0  0  0
  2  3  1  0  0  0  0
  2 17  1  0  0  0  0
  2 18  1  0  0  0  0
  3  4  1  0  0  0  0
  3 19  1  0  0  0  0
  3 20  1  0  0  0  0
  4  5  1  0  0  0  0
  5  6  1  0  0  0  0
  5 21  1  0  0  0  0
  5 22  1  0  0  0  0
  6  7  1  0  0  0  0
  6 23  1  0  0  0  0
  6 24  1  0  0  0  0
  7  8  1  0  0  0  0
  8  9  1  0  0  0  0
  8 25  1  0  0  0  0
  8 26  1  0  0  0  0
  9 10  1  0  0  0  0
  9 27  1  0  0  0  0
  9 28  1  0  0  0  0
 10 11  1  0  0  0  0
 11 12  1  0  0  0  0
 11 29  1  0  0  0  0
 11 30  1  0  0  0  0
 12 13  1  0  0  0  0
 12 31  1  0  0  0  0
 12 32  1  0  0  0  0
 13 33  1  0  0  0  0
 13 34  1  0  0  0  0
 13 35  1  0  0  0  0
M  END
