5ehr_19.pdb
  MOE2019           3D

 38 37  0  0  0  0  0  0  0  0999 V2000
   12.2460   13.5620    0.0000 C   0  0  0  0  0  0  0  0  0  0  0  0
   10.9470   12.8120    0.0000 C   0  0  0  0  0  0  0  0  0  0  0  0
    9.6480   13.5620    0.0000 C   0  0  0  0  0  0  0  0  0  0  0  0
    8.3490   12.8120    0.0000 C   0  0  0  0  0  0  0  0  0  0  0  0
    7.0500   13.5620    0.0000 C   0  0  0  0  0  0  0  0  0  0  0  0
    5.7510   12.8120    0.0000 C   0  0  0  0  0  0  0  0  0  0  0  0
    4.4520   13.5620    0.0000 C   0  0  0  0  0  0  0  0  0  0  0  0
    3.1530   12.8120    0.0000 C   0  0  0  0  0  0  0  0  0  0  0  0
    1.8540   13.5620    0.0000 C   0  0  0  0  0  0  0  0  0  0  0  0
    0.5550   12.8120    0.0000 C   0  0  0  0  0  0  0  0  0  0  0  0
   -0.7440   13.5620    0.0000 C   0  0  0  0  0  0  0  0  0  0  0  0
   -2.0430   12.8120    0.0000 C   0  0  0  0  0  0  0  0  0  0  0  0
   12.2460   14.1910    0.8900 H   0  0  0  0  0  0  0  0  0  0  0  0
   13.1160   12.9050    0.0000 H   0  0  0  0  0  0  0  0  0  0  0  0
   12.2460   14.1910   -0.8900 H   0  0  0  0  0  0  0  0  0  0  0  0
   10.9470   12.1830   -0.8900 H   0  0  0  0  0  0  0  0  0  0  0  0
   10.9470   12.1830    0.8900 H   0  0  0  0  0  0  0  0  0  0  0  0
    9.6480   14.1910    0.8900 H   0  0  0  0  0  0  0  0  0  0  0  0
    9.6480   14.1910   -0.8900 H   0  0  0  0  0  0  0  0  0  0  0  0
    8.3490   12.1830   -0.8900 H   0  0  0  0  0  0  0  0  0  0  0  0
    8.3490   12.1830    0.8900 H   0  0  0  0  0  0  0  0  0  0  0  0
    7.0500   14.1910    0.8900 H   0  0  0  0  0  0  0  0  0  0  0  0
    7.0500   14.1910   -0.8900 H   0  0  0  0  0  0  0  0  0  0  0  0
    5.7510   12.1830   -0.8900 H   0  0  0  0  0  0  0  0  0  0  0  0
    5.7510   12.1830    0.8900 H   0  0  0  0  0  0  0  0  0  0  0  0
    4.4520   14.1910   -0.8900 H   0  0  0  0  0  0  0  0  0  0  0  0
    4.4520   14.1910    0.8900 H   0  0  0  0  0  0  0  0  0  0  0  0
    3.1530   12.1830    0.8900 H   0  0  0  0  0  0  0  0  0  0  0  0
    3.1530   12.1830   -0.8900 H   0  0  0  0  0  0  0  0  0  0  0  0
    1.8540   14.1910   -0.8900 H   0  0  0  0  0  0  0  0  0  0  0  0
    1.8540   14.1910    0.8900 H   0  0  0  0  0  0  0  0  0  0  0  0
    0.5550   12.1830    0.8900 H   0  0  0  0  0  0  0  0  0  0  0  0
    0.5550   12.1830   -0.8900 H   0  0  0  0  0  0  0  0  0  0  0  0
   -0.7440   14.1910   -0.8900 H   0  0  0  0  0  0  0  0  0  0  0  0
   -0.7440   14.1910    0.8900 H   0  0  0  0  0  0  0  0  0  0  0  0
   -2.0430   12.1830    0.8900 H   0  0  0  0  0  0  0  0  0  0  0  0
   -2.0430   12.1830   -0.8900 H   0  0  0  0  0  0  0  0  0  0  0  0
   -2.9130   13.4690    0.0000 H   0  0  0  0  0  0  0  0  0  0  0  0
  1  2  1  0  0  0  0
  1 13  1  0  0  0  0
  1 14  1  0  0  0  0
  1 15  1  0  0  0  0
  2  3  1  0  0  0  0
  2 16  1  0  0  0  0
  2 17  1  0  0  0  0
  3  4  1  0  0  0  0
  3 18  1  0  0  0  0
  3 19  1  0  0  0  0
  4  5  1  0  0  0  0
  4 20  1  0  0  0  0
  4 21  1  0  0  0  0
  5  6  1  0  0  0  0
  5 22  1  0  0  0  0
  5 23  1  0  0  0  0
  6  7  1  0  0  0  0
  6 24  1  0  0  0  0
  6 25  1  0  0  0  0
  7  8  1  0  0  0  0
  7 26  1  0  0  0  0
  7 27  1  0  0  0  0
  8  9  1  0  0  0  0
  8 28  1  0  0  0  0
  8 29  1  0  0  0  0
  9 10  1  0  0  0  0
  9 30  1  0  0  0  0
  9 31  1  0  0  0  0
 10 11  1  0  0  0  0
 10 32  1  0  0  0  0
 10 33  1  0  0  0  0
 11 12  1  0  0  0  0
 11 34  1  0  0  0  0
 11 35  1  0  0  0  0
 12 36  1  0  0  0  0
 12 37  1  0  0  0  0
 12 38  1  0  0  0  0
M  END
