5ehr_13.pdb
  MOE2019           3D

 42 41  0  0  0  0  0  0  0  0999 V2000
   10.2920  -15.4890    0.0000 C   0  0  0  0  0  0  0  0  0  0  0  0
    8.9930  -16.2390    0.0000 C   0  0  0  0  0  0  0  0  0  0  0  0
    8.9930  -17.7390    0.0000 C   0  0  0  0  0  0  0  0  0  0  0  0
   10.2920  -18.4890    0.0000 O   0  0  0  0  0  0  0  0  0  0  0  0
    7.6940  -18.4890    0.0000 N   0  0  0  0  0  0  0  0  0  0  0  0
    6.3950  -17.7390    0.0000 C   0  0  0  0  0  0  0  0  0  0  0  0
    5.0960  -18.4890    0.0000 C   0  0  0  0  0  0  0  0  0  0  0  0
    3.7970  -17.7390    0.0000 C   0  0  0  0  0  0  0  0  0  0  0  0
    2.4980  -18.4890    0.0000 C   0  0  0  0  0  0  0  0  0  0  0  0
    1.1990  -17.7390    0.0000 C   0  0  0  0  0  0  0  0  0  0  0  0
   -0.1000  -18.4890    0.0000 C   0  0  0  0  0  0  0  0  0  0  0  0
   -1.3990  -17.7390    0.0000 C   0  0  0  0  0  0  0  0  0  0  0  0
   -2.6980  -18.4890    0.0000 C   0  0  0  0  0  0  0  0  0  0  0  0
   -3.9970  -17.7390    0.0000 C   0  0  0  0  0  0  0  0  0  0  0  0
   -5.2960  -18.4890    0.0000 C   0  0  0  0  0  0  0  0  0  0  0  0
   10.8370  -15.8040   -0.8900 H   0  0  0  0  0  0  0  0  0  0  0  0
   10.1580  -14.4070    0.0000 H   0  0  0  0  0  0  0  0  0  0  0  0
   10.8370  -15.8040    0.8900 H   0  0  0  0  0  0  0  0  0  0  0  0
    8.4480  -15.9240   -0.8900 H   0  0  0  0  0  0  0  0  0  0  0  0
    8.4480  -15.9240    0.8900 H   0  0  0  0  0  0  0  0  0  0  0  0
    7.6940  -19.4990    0.0000 H   0  0  0  0  0  0  0  0  0  0  0  0
    6.3950  -17.1100    0.8900 H   0  0  0  0  0  0  0  0  0  0  0  0
    6.3950  -17.1100   -0.8900 H   0  0  0  0  0  0  0  0  0  0  0  0
    5.0960  -19.1180   -0.8900 H   0  0  0  0  0  0  0  0  0  0  0  0
    5.0960  -19.1180    0.8900 H   0  0  0  0  0  0  0  0  0  0  0  0
    3.7970  -17.1100    0.8900 H   0  0  0  0  0  0  0  0  0  0  0  0
    3.7970  -17.1100   -0.8900 H   0  0  0  0  0  0  0  0  0  0  0  0
    2.4980  -19.1180   -0.8900 H   0  0  0  0  0  0  0  0  0  0  0  0
    2.4980  -19.1180    0.8900 H   0  0  0  0  0  0  0  0  0  0  0  0
    1.1990  -17.1100    0.8900 H   0  0  0  0  0  0  0  0  0  0  0  0
    1.1990  -17.1100   -0.8900 H   0  0  0  0  0  0  0  0  0  0  0  0
   -0.1000  -19.1180   -0.8900 H   0  0  0  0  0  0  0  0  0  0  0  0
   -0.1000  -19.1180    0.8900 H   0  0  0  0  0  0  0  0  0  0  0  0
   -1.3990  -17.1100   -0.8900 H   0  0  0  0  0  0  0  0  0  0  0  0
   -1.3990  -17.1100    0.8900 H   0  0  0  0  0  0  0  0  0  0  0  0
   -2.6980  -19.1180    0.8900 H   0  0  0  0  0  0  0  0  0  0  0  0
   -2.6980  -19.1180   -0.8900 H   0  0  0  0  0  0  0  0  0  0  0  0
   -3.9970  -17.1100   -0.8900 H   0  0  0  0  0  0  0  0  0  0  0  0
   -3.9970  -17.1100    0.8900 H   0  0  0  0  0  0  0  0  0  0  0  0
   -5.2960  -19.1180    0.8900 H   0  0  0  0  0  0  0  0  0  0  0  0
   -5.2960  -19.1180   -0.8900 H   0  0  0  0  0  0  0  0  0  0  0  0
   -6.1660  -17.8320    0.0000 H   0  0  0  0  0  0  0  0  0  0  0  0
  1  2  1  0  0  0  0
  1 16  1  0  0  0  0
  1 17  1  0  0  0  0
  1 18  1  0  0  0  0
  2  3  1  0  0  0  0
  2 19  1  0  0  0  0
  2 20  1  0  0  0  0
  3  4  2  0  0  0  0
  3  5  1  0  0  0  0
  5  6  1  0  0  0  0
  5 21  1  0  0  0  0
  6  7  1  0  0  0  0
  6 22  1  0  0  0  0
  6 23  1  0  0  0  0
  7  8  1  0  0  0  0
  7 24  1  0  0  0  0
  7 25  1  0  0  0  0
  8  9  1  0  0  0  0
  8 26  1  0  0  0  0
  8 27  1  0  0  0  0
  9 10  1  0  0  0  0
  9 28  1  0  0  0  0
  9 29  1  0  0  0  0
 10 11  1  0  0  0  0
 10 30  1  0  0  0  0
 10 31  1  0  0  0  0
 11 12  1  0  0  0  0
 11 32  1  0  0  0  0
 11 33  1  0  0  0  0
 12 13  1  0  0  0  0
 12 34  1  0  0  0  0
 12 35  1  0  0  0  0
 13 14  1  0  0  0  0
 13 36  1  0  0  0  0
 13 37  1  0  0  0  0
 14 15  1  0  0  0  0
 14 38  1  0  0  0  0
 14 39  1  0  0  0  0
 15 40  1  0  0  0  0
 15 41  1  0  0  0  0
 15 42  1  0  0  0  0
M  END
