5ehr_12.pdb
  MOE2019           3D

 39 38  0  0  0  0  0  0  0  0999 V2000
   10.2670  -14.5120    0.0000 C   0  0  0  0  0  0  0  0  0  0  0  0
    8.9680  -15.2620    0.0000 C   0  0  0  0  0  0  0  0  0  0  0  0
    8.9680  -16.7620    0.0000 O   0  0  0  0  0  0  0  0  0  0  0  0
    7.6690  -14.5120    0.0000 N   0  0  0  0  0  0  0  0  0  0  0  0
    6.3700  -15.2620    0.0000 C   0  0  0  0  0  0  0  0  0  0  0  0
    5.0710  -14.5120    0.0000 C   0  0  0  0  0  0  0  0  0  0  0  0
    3.7720  -15.2620    0.0000 C   0  0  0  0  0  0  0  0  0  0  0  0
    2.4730  -14.5120    0.0000 C   0  0  0  0  0  0  0  0  0  0  0  0
    1.1740  -15.2620    0.0000 C   0  0  0  0  0  0  0  0  0  0  0  0
   -0.1250  -14.5120    0.0000 C   0  0  0  0  0  0  0  0  0  0  0  0
   -1.4240  -15.2620    0.0000 C   0  0  0  0  0  0  0  0  0  0  0  0
   -2.7230  -14.5120    0.0000 C   0  0  0  0  0  0  0  0  0  0  0  0
   -4.0220  -15.2620    0.0000 C   0  0  0  0  0  0  0  0  0  0  0  0
   -5.3210  -14.5120    0.0000 C   0  0  0  0  0  0  0  0  0  0  0  0
   10.2670  -13.8830   -0.8900 H   0  0  0  0  0  0  0  0  0  0  0  0
   11.1370  -15.1690    0.0000 H   0  0  0  0  0  0  0  0  0  0  0  0
   10.2670  -13.8830    0.8900 H   0  0  0  0  0  0  0  0  0  0  0  0
    7.6690  -13.5020    0.0000 H   0  0  0  0  0  0  0  0  0  0  0  0
    6.3700  -15.8910   -0.8900 H   0  0  0  0  0  0  0  0  0  0  0  0
    6.3700  -15.8910    0.8900 H   0  0  0  0  0  0  0  0  0  0  0  0
    5.0710  -13.8830    0.8900 H   0  0  0  0  0  0  0  0  0  0  0  0
    5.0710  -13.8830   -0.8900 H   0  0  0  0  0  0  0  0  0  0  0  0
    3.7720  -15.8910   -0.8900 H   0  0  0  0  0  0  0  0  0  0  0  0
    3.7720  -15.8910    0.8900 H   0  0  0  0  0  0  0  0  0  0  0  0
    2.4730  -13.8830    0.8900 H   0  0  0  0  0  0  0  0  0  0  0  0
    2.4730  -13.8830   -0.8900 H   0  0  0  0  0  0  0  0  0  0  0  0
    1.1740  -15.8910   -0.8900 H   0  0  0  0  0  0  0  0  0  0  0  0
    1.1740  -15.8910    0.8900 H   0  0  0  0  0  0  0  0  0  0  0  0
   -0.1250  -13.8830    0.8900 H   0  0  0  0  0  0  0  0  0  0  0  0
   -0.1250  -13.8830   -0.8900 H   0  0  0  0  0  0  0  0  0  0  0  0
   -1.4240  -15.8910    0.8900 H   0  0  0  0  0  0  0  0  0  0  0  0
   -1.4240  -15.8910   -0.8900 H   0  0  0  0  0  0  0  0  0  0  0  0
   -2.7230  -13.8830   -0.8900 H   0  0  0  0  0  0  0  0  0  0  0  0
   -2.7230  -13.8830    0.8900 H   0  0  0  0  0  0  0  0  0  0  0  0
   -4.0220  -15.8910    0.8900 H   0  0  0  0  0  0  0  0  0  0  0  0
   -4.0220  -15.8910   -0.8900 H   0  0  0  0  0  0  0  0  0  0  0  0
   -5.3210  -13.8830   -0.8900 H   0  0  0  0  0  0  0  0  0  0  0  0
   -5.3210  -13.8830    0.8900 H   0  0  0  0  0  0  0  0  0  0  0  0
   -6.1910  -15.1690    0.0000 H   0  0  0  0  0  0  0  0  0  0  0  0
  1  2  1  0  0  0  0
  1 15  1  0  0  0  0
  1 16  1  0  0  0  0
  1 17  1  0  0  0  0
  2  3  2  0  0  0  0
  2  4  1  0  0  0  0
  4  5  1  0  0  0  0
  4 18  1  0  0  0  0
  5  6  1  0  0  0  0
  5 19  1  0  0  0  0
  5 20  1  0  0  0  0
  6  7  1  0  0  0  0
  6 21  1  0  0  0  0
  6 22  1  0  0  0  0
  7  8  1  0  0  0  0
  7 23  1  0  0  0  0
  7 24  1  0  0  0  0
  8  9  1  0  0  0  0
  8 25  1  0  0  0  0
  8 26  1  0  0  0  0
  9 10  1  0  0  0  0
  9 27  1  0  0  0  0
  9 28  1  0  0  0  0
 10 11  1  0  0  0  0
 10 29  1  0  0  0  0
 10 30  1  0  0  0  0
 11 12  1  0  0  0  0
 11 31  1  0  0  0  0
 11 32  1  0  0  0  0
 12 13  1  0  0  0  0
 12 33  1  0  0  0  0
 12 34  1  0  0  0  0
 13 14  1  0  0  0  0
 13 35  1  0  0  0  0
 13 36  1  0  0  0  0
 14 37  1  0  0  0  0
 14 38  1  0  0  0  0
 14 39  1  0  0  0  0
M  END
