5eko_1.pdb
  MOE2019           3D

 39 38  0  0  0  0  0  0  0  0999 V2000
    1.5090   -8.8890    0.0000 C   0  0  0  0  0  0  0  0  0  0  0  0
    2.8120   -8.1450    0.0000 C   0  0  0  0  0  0  0  0  0  0  0  0
    4.1070   -8.9000    0.0000 C   0  0  0  0  0  0  0  0  0  0  0  0
    5.4100   -8.1560    0.0000 O   0  0  0  0  0  0  0  0  0  0  0  0
    6.7060   -8.9110    0.0000 C   0  0  0  0  0  0  0  0  0  0  0  0
    8.0080   -8.1660    0.0000 C   0  0  0  0  0  0  0  0  0  0  0  0
    9.3040   -8.9220    0.0000 C   0  0  0  0  0  0  0  0  0  0  0  0
   10.6060   -8.1770    0.0000 O   0  0  0  0  0  0  0  0  0  0  0  0
   11.9020   -8.9330    0.0000 C   0  0  0  0  0  0  0  0  0  0  0  0
   13.2040   -8.1880    0.0000 C   0  0  0  0  0  0  0  0  0  0  0  0
   14.5000   -8.9440    0.0000 C   0  0  0  0  0  0  0  0  0  0  0  0
   15.8020   -8.1990    0.0000 O   0  0  0  0  0  0  0  0  0  0  0  0
   14.4930  -10.4440    0.0000 N   0  0  0  0  0  0  0  0  0  0  0  0
   15.7890  -11.1990    0.0000 C   0  0  0  0  0  0  0  0  0  0  0  0
   15.7830  -12.6990    0.0000 C   0  0  0  0  0  0  0  0  0  0  0  0
   17.0790  -13.4540    0.0000 O   0  0  0  0  0  0  0  0  0  0  0  0
   17.5700  -13.1870   -0.7800 H   0  0  0  0  0  0  0  0  0  0  0  0
    1.5060   -9.5180   -0.8900 H   0  0  0  0  0  0  0  0  0  0  0  0
    0.6420   -8.2280    0.0000 H   0  0  0  0  0  0  0  0  0  0  0  0
    1.5060   -9.5180    0.8900 H   0  0  0  0  0  0  0  0  0  0  0  0
    2.8150   -7.5160    0.8900 H   0  0  0  0  0  0  0  0  0  0  0  0
    2.8150   -7.5160   -0.8900 H   0  0  0  0  0  0  0  0  0  0  0  0
    4.1040   -9.5290   -0.8900 H   0  0  0  0  0  0  0  0  0  0  0  0
    4.1040   -9.5290    0.8900 H   0  0  0  0  0  0  0  0  0  0  0  0
    6.7040   -9.5400   -0.8900 H   0  0  0  0  0  0  0  0  0  0  0  0
    6.7040   -9.5400    0.8900 H   0  0  0  0  0  0  0  0  0  0  0  0
    8.0110   -7.5370    0.8900 H   0  0  0  0  0  0  0  0  0  0  0  0
    8.0110   -7.5370   -0.8900 H   0  0  0  0  0  0  0  0  0  0  0  0
    9.3010   -9.5510   -0.8900 H   0  0  0  0  0  0  0  0  0  0  0  0
    9.3010   -9.5510    0.8900 H   0  0  0  0  0  0  0  0  0  0  0  0
   11.8990   -9.5620   -0.8900 H   0  0  0  0  0  0  0  0  0  0  0  0
   11.8990   -9.5620    0.8900 H   0  0  0  0  0  0  0  0  0  0  0  0
   13.2070   -7.5590    0.8900 H   0  0  0  0  0  0  0  0  0  0  0  0
   13.2070   -7.5590   -0.8900 H   0  0  0  0  0  0  0  0  0  0  0  0
   13.6160  -10.9450    0.0000 H   0  0  0  0  0  0  0  0  0  0  0  0
   16.3350  -10.8860    0.8900 H   0  0  0  0  0  0  0  0  0  0  0  0
   16.3350  -10.8860   -0.8900 H   0  0  0  0  0  0  0  0  0  0  0  0
   15.2370  -13.0120   -0.8900 H   0  0  0  0  0  0  0  0  0  0  0  0
   15.2370  -13.0120    0.8900 H   0  0  0  0  0  0  0  0  0  0  0  0
  1  2  1  0  0  0  0
  1 18  1  0  0  0  0
  1 19  1  0  0  0  0
  1 20  1  0  0  0  0
  2  3  1  0  0  0  0
  2 21  1  0  0  0  0
  2 22  1  0  0  0  0
  3  4  1  0  0  0  0
  3 23  1  0  0  0  0
  3 24  1  0  0  0  0
  4  5  1  0  0  0  0
  5  6  1  0  0  0  0
  5 25  1  0  0  0  0
  5 26  1  0  0  0  0
  6  7  1  0  0  0  0
  6 27  1  0  0  0  0
  6 28  1  0  0  0  0
  7  8  1  0  0  0  0
  7 29  1  0  0  0  0
  7 30  1  0  0  0  0
  8  9  1  0  0  0  0
  9 10  1  0  0  0  0
  9 31  1  0  0  0  0
  9 32  1  0  0  0  0
 10 11  1  0  0  0  0
 10 33  1  0  0  0  0
 10 34  1  0  0  0  0
 11 12  2  0  0  0  0
 11 13  1  0  0  0  0
 13 14  1  0  0  0  0
 13 35  1  0  0  0  0
 14 15  1  0  0  0  0
 14 36  1  0  0  0  0
 14 37  1  0  0  0  0
 15 16  1  0  0  0  0
 15 38  1  0  0  0  0
 15 39  1  0  0  0  0
 16 17  1  0  0  0  0
M  END
