5eko_2.pdb
  MOE2019           3D

 28 27  0  0  0  0  0  0  0  0999 V2000
    1.1630   12.4070    0.0000 C   0  0  0  0  0  0  0  0  0  0  0  0
   -0.3370   12.4070    0.0000 C   0  0  0  0  0  0  0  0  0  0  0  0
   -1.0870   11.1080    0.0000 C   0  0  0  0  0  0  0  0  0  0  0  0
   -2.5870   11.1080    0.0000 C   0  0  0  0  0  0  0  0  0  0  0  0
   -3.3370    9.8090    0.0000 O   0  0  0  0  0  0  0  0  0  0  0  0
   -4.8370    9.8090    0.0000 C   0  0  0  0  0  0  0  0  0  0  0  0
   -5.5870    8.5100    0.0000 C   0  0  0  0  0  0  0  0  0  0  0  0
   -7.0870    8.5100    0.0000 C   0  0  0  0  0  0  0  0  0  0  0  0
   -7.8370    7.2110    0.0000 C   0  0  0  0  0  0  0  0  0  0  0  0
   -9.3370    7.2110    0.0000 O   0  0  0  0  0  0  0  0  0  0  0  0
   -9.6270    6.2960    0.0000 H   0  0  0  0  0  0  0  0  0  0  0  0
    1.4780   11.8620   -0.8900 H   0  0  0  0  0  0  0  0  0  0  0  0
    1.5870   13.4110    0.0000 H   0  0  0  0  0  0  0  0  0  0  0  0
    1.4780   11.8620    0.8900 H   0  0  0  0  0  0  0  0  0  0  0  0
   -0.6520   12.9520    0.8900 H   0  0  0  0  0  0  0  0  0  0  0  0
   -0.6520   12.9520   -0.8900 H   0  0  0  0  0  0  0  0  0  0  0  0
   -0.7720   10.5630    0.8900 H   0  0  0  0  0  0  0  0  0  0  0  0
   -0.7720   10.5630   -0.8900 H   0  0  0  0  0  0  0  0  0  0  0  0
   -2.9020   11.6530   -0.8900 H   0  0  0  0  0  0  0  0  0  0  0  0
   -2.9020   11.6530    0.8900 H   0  0  0  0  0  0  0  0  0  0  0  0
   -5.1520   10.3540    0.8900 H   0  0  0  0  0  0  0  0  0  0  0  0
   -5.1520   10.3540   -0.8900 H   0  0  0  0  0  0  0  0  0  0  0  0
   -5.2720    7.9650   -0.8900 H   0  0  0  0  0  0  0  0  0  0  0  0
   -5.2720    7.9650    0.8900 H   0  0  0  0  0  0  0  0  0  0  0  0
   -7.4020    9.0550   -0.8900 H   0  0  0  0  0  0  0  0  0  0  0  0
   -7.4020    9.0550    0.8900 H   0  0  0  0  0  0  0  0  0  0  0  0
   -7.5220    6.6660    0.8900 H   0  0  0  0  0  0  0  0  0  0  0  0
   -7.5220    6.6660   -0.8900 H   0  0  0  0  0  0  0  0  0  0  0  0
  1  2  1  0  0  0  0
  1 12  1  0  0  0  0
  1 13  1  0  0  0  0
  1 14  1  0  0  0  0
  2  3  1  0  0  0  0
  2 15  1  0  0  0  0
  2 16  1  0  0  0  0
  3  4  1  0  0  0  0
  3 17  1  0  0  0  0
  3 18  1  0  0  0  0
  4  5  1  0  0  0  0
  4 19  1  0  0  0  0
  4 20  1  0  0  0  0
  5  6  1  0  0  0  0
  6  7  1  0  0  0  0
  6 21  1  0  0  0  0
  6 22  1  0  0  0  0
  7  8  1  0  0  0  0
  7 23  1  0  0  0  0
  7 24  1  0  0  0  0
  8  9  1  0  0  0  0
  8 25  1  0  0  0  0
  8 26  1  0  0  0  0
  9 10  1  0  0  0  0
  9 27  1  0  0  0  0
  9 28  1  0  0  0  0
 10 11  1  0  0  0  0
M  END
