5eu1_20.pdb
  MOE2019           3D

 29 28  0  0  0  0  0  0  0  0999 V2000
    5.2760   -2.3960    0.0000 C   0  0  0  0  0  0  0  0  0  0  0  0
    6.5750   -1.6450    0.0000 C   0  0  0  0  0  0  0  0  0  0  0  0
    7.8740   -2.3940    0.0000 O   0  0  0  0  0  0  0  0  0  0  0  0
    9.1730   -1.6440    0.0000 C   0  0  0  0  0  0  0  0  0  0  0  0
   10.4720   -2.3930    0.0000 C   0  0  0  0  0  0  0  0  0  0  0  0
   11.7710   -1.6420    0.0000 O   0  0  0  0  0  0  0  0  0  0  0  0
   13.0700   -2.3920    0.0000 C   0  0  0  0  0  0  0  0  0  0  0  0
   14.3690   -1.6410    0.0000 C   0  0  0  0  0  0  0  0  0  0  0  0
   15.6680   -2.3900    0.0000 O   0  0  0  0  0  0  0  0  0  0  0  0
   16.9670   -1.6400    0.0000 C   0  0  0  0  0  0  0  0  0  0  0  0
   18.2660   -2.3890    0.0000 C   0  0  0  0  0  0  0  0  0  0  0  0
    5.2760   -3.0250    0.8900 H   0  0  0  0  0  0  0  0  0  0  0  0
    5.2760   -3.0250   -0.8900 H   0  0  0  0  0  0  0  0  0  0  0  0
    4.4060   -1.7390    0.0000 H   0  0  0  0  0  0  0  0  0  0  0  0
    6.5750   -1.0160    0.8900 H   0  0  0  0  0  0  0  0  0  0  0  0
    6.5750   -1.0160   -0.8900 H   0  0  0  0  0  0  0  0  0  0  0  0
    9.1730   -1.0150   -0.8900 H   0  0  0  0  0  0  0  0  0  0  0  0
    9.1730   -1.0150    0.8900 H   0  0  0  0  0  0  0  0  0  0  0  0
   10.4720   -3.0220   -0.8900 H   0  0  0  0  0  0  0  0  0  0  0  0
   10.4720   -3.0220    0.8900 H   0  0  0  0  0  0  0  0  0  0  0  0
   13.0700   -3.0210    0.8900 H   0  0  0  0  0  0  0  0  0  0  0  0
   13.0700   -3.0210   -0.8900 H   0  0  0  0  0  0  0  0  0  0  0  0
   14.3690   -1.0120    0.8900 H   0  0  0  0  0  0  0  0  0  0  0  0
   14.3690   -1.0120   -0.8900 H   0  0  0  0  0  0  0  0  0  0  0  0
   16.9670   -1.0110   -0.8900 H   0  0  0  0  0  0  0  0  0  0  0  0
   16.9670   -1.0110    0.8900 H   0  0  0  0  0  0  0  0  0  0  0  0
   18.2660   -3.0180   -0.8900 H   0  0  0  0  0  0  0  0  0  0  0  0
   18.2660   -3.0180    0.8900 H   0  0  0  0  0  0  0  0  0  0  0  0
   19.1360   -1.7320    0.0000 H   0  0  0  0  0  0  0  0  0  0  0  0
  1  2  1  0  0  0  0
  1 12  1  0  0  0  0
  1 13  1  0  0  0  0
  1 14  1  0  0  0  0
  2  3  1  0  0  0  0
  2 15  1  0  0  0  0
  2 16  1  0  0  0  0
  3  4  1  0  0  0  0
  4  5  1  0  0  0  0
  4 17  1  0  0  0  0
  4 18  1  0  0  0  0
  5  6  1  0  0  0  0
  5 19  1  0  0  0  0
  5 20  1  0  0  0  0
  6  7  1  0  0  0  0
  7  8  1  0  0  0  0
  7 21  1  0  0  0  0
  7 22  1  0  0  0  0
  8  9  1  0  0  0  0
  8 23  1  0  0  0  0
  8 24  1  0  0  0  0
  9 10  1  0  0  0  0
 10 11  1  0  0  0  0
 10 25  1  0  0  0  0
 10 26  1  0  0  0  0
 11 27  1  0  0  0  0
 11 28  1  0  0  0  0
 11 29  1  0  0  0  0
M  END
