5eu1_11.pdb
  MOE2019           3D

 17 16  0  0  0  0  0  0  0  0999 V2000
    7.3370   -8.4360    0.0000 O   0  0  0  0  0  0  0  0  0  0  0  0
    8.0460   -7.7890    0.0000 H   0  0  0  0  0  0  0  0  0  0  0  0
    6.0380   -7.6860    0.0000 C   0  0  0  0  0  0  0  0  0  0  0  0
    4.7390   -8.4360    0.0000 C   0  0  0  0  0  0  0  0  0  0  0  0
    3.4400   -7.6860    0.0000 O   0  0  0  0  0  0  0  0  0  0  0  0
    2.1410   -8.4360    0.0000 C   0  0  0  0  0  0  0  0  0  0  0  0
    0.8420   -7.6860    0.0000 C   0  0  0  0  0  0  0  0  0  0  0  0
   -0.4570   -8.4360    0.0000 O   0  0  0  0  0  0  0  0  0  0  0  0
   -0.4700   -8.9950   -0.7800 H   0  0  0  0  0  0  0  0  0  0  0  0
    6.0380   -7.0570    0.8900 H   0  0  0  0  0  0  0  0  0  0  0  0
    6.0380   -7.0570   -0.8900 H   0  0  0  0  0  0  0  0  0  0  0  0
    4.7390   -9.0650    0.8900 H   0  0  0  0  0  0  0  0  0  0  0  0
    4.7390   -9.0650   -0.8900 H   0  0  0  0  0  0  0  0  0  0  0  0
    2.1410   -9.0650   -0.8900 H   0  0  0  0  0  0  0  0  0  0  0  0
    2.1410   -9.0650    0.8900 H   0  0  0  0  0  0  0  0  0  0  0  0
    0.8420   -7.0570   -0.8900 H   0  0  0  0  0  0  0  0  0  0  0  0
    0.8420   -7.0570    0.8900 H   0  0  0  0  0  0  0  0  0  0  0  0
  1  2  1  0  0  0  0
  1  3  1  0  0  0  0
  3  4  1  0  0  0  0
  3 10  1  0  0  0  0
  3 11  1  0  0  0  0
  4  5  1  0  0  0  0
  4 12  1  0  0  0  0
  4 13  1  0  0  0  0
  5  6  1  0  0  0  0
  6  7  1  0  0  0  0
  6 14  1  0  0  0  0
  6 15  1  0  0  0  0
  7  8  1  0  0  0  0
  7 16  1  0  0  0  0
  7 17  1  0  0  0  0
  8  9  1  0  0  0  0
M  END
