5eu1_22.pdb
  MOE2019           3D

 24 23  0  0  0  0  0  0  0  0999 V2000
   -7.8970   17.4070    0.0000 C   0  0  0  0  0  0  0  0  0  0  0  0
   -6.6010   16.6520    0.0000 C   0  0  0  0  0  0  0  0  0  0  0  0
   -5.2990   17.3970    0.0000 O   0  0  0  0  0  0  0  0  0  0  0  0
   -4.0030   16.6420    0.0000 C   0  0  0  0  0  0  0  0  0  0  0  0
   -2.7010   17.3870    0.0000 C   0  0  0  0  0  0  0  0  0  0  0  0
   -1.4050   16.6320    0.0000 C   0  0  0  0  0  0  0  0  0  0  0  0
   -0.1030   17.3770    0.0000 C   0  0  0  0  0  0  0  0  0  0  0  0
    1.1930   16.6220    0.0000 C   0  0  0  0  0  0  0  0  0  0  0  0
   -7.8950   18.0360   -0.8900 H   0  0  0  0  0  0  0  0  0  0  0  0
   -7.8950   18.0360    0.8900 H   0  0  0  0  0  0  0  0  0  0  0  0
   -8.7690   16.7530    0.0000 H   0  0  0  0  0  0  0  0  0  0  0  0
   -6.6030   16.0230   -0.8900 H   0  0  0  0  0  0  0  0  0  0  0  0
   -6.6030   16.0230    0.8900 H   0  0  0  0  0  0  0  0  0  0  0  0
   -4.0050   16.0130    0.8900 H   0  0  0  0  0  0  0  0  0  0  0  0
   -4.0050   16.0130   -0.8900 H   0  0  0  0  0  0  0  0  0  0  0  0
   -2.6990   18.0160   -0.8900 H   0  0  0  0  0  0  0  0  0  0  0  0
   -2.6990   18.0160    0.8900 H   0  0  0  0  0  0  0  0  0  0  0  0
   -1.4070   16.0030    0.8900 H   0  0  0  0  0  0  0  0  0  0  0  0
   -1.4070   16.0030   -0.8900 H   0  0  0  0  0  0  0  0  0  0  0  0
   -0.1010   18.0060    0.8900 H   0  0  0  0  0  0  0  0  0  0  0  0
   -0.1010   18.0060   -0.8900 H   0  0  0  0  0  0  0  0  0  0  0  0
    1.1910   15.9930   -0.8900 H   0  0  0  0  0  0  0  0  0  0  0  0
    1.1910   15.9930    0.8900 H   0  0  0  0  0  0  0  0  0  0  0  0
    2.0650   17.2760    0.0000 H   0  0  0  0  0  0  0  0  0  0  0  0
  1  2  1  0  0  0  0
  1  9  1  0  0  0  0
  1 10  1  0  0  0  0
  1 11  1  0  0  0  0
  2  3  1  0  0  0  0
  2 12  1  0  0  0  0
  2 13  1  0  0  0  0
  3  4  1  0  0  0  0
  4  5  1  0  0  0  0
  4 14  1  0  0  0  0
  4 15  1  0  0  0  0
  5  6  1  0  0  0  0
  5 16  1  0  0  0  0
  5 17  1  0  0  0  0
  6  7  1  0  0  0  0
  6 18  1  0  0  0  0
  6 19  1  0  0  0  0
  7  8  1  0  0  0  0
  7 20  1  0  0  0  0
  7 21  1  0  0  0  0
  8 22  1  0  0  0  0
  8 23  1  0  0  0  0
  8 24  1  0  0  0  0
M  END
