5f1h_1.pdb
  MOE2019           3D

 22 21  0  0  0  0  0  0  0  0999 V2000
    4.6690   16.5820    0.0000 C   0  0  0  0  0  0  0  0  0  0  0  0
    4.6700   15.0820    0.0000 C   0  0  0  0  0  0  0  0  0  0  0  0
    5.9690   14.3330    0.0000 O   0  0  0  0  0  0  0  0  0  0  0  0
    7.2680   15.0830    0.0000 C   0  0  0  0  0  0  0  0  0  0  0  0
    8.5670   14.3340    0.0000 C   0  0  0  0  0  0  0  0  0  0  0  0
    9.8660   15.0850    0.0000 O   0  0  0  0  0  0  0  0  0  0  0  0
   11.1650   14.3360    0.0000 C   0  0  0  0  0  0  0  0  0  0  0  0
   12.4640   15.0860    0.0000 C   0  0  0  0  0  0  0  0  0  0  0  0
    5.2140   16.8970   -0.8900 H   0  0  0  0  0  0  0  0  0  0  0  0
    5.2140   16.8970    0.8900 H   0  0  0  0  0  0  0  0  0  0  0  0
    3.6650   17.0060    0.0000 H   0  0  0  0  0  0  0  0  0  0  0  0
    4.1250   14.7670   -0.8900 H   0  0  0  0  0  0  0  0  0  0  0  0
    4.1250   14.7670    0.8900 H   0  0  0  0  0  0  0  0  0  0  0  0
    7.2680   15.7120   -0.8900 H   0  0  0  0  0  0  0  0  0  0  0  0
    7.2680   15.7120    0.8900 H   0  0  0  0  0  0  0  0  0  0  0  0
    8.5670   13.7050   -0.8900 H   0  0  0  0  0  0  0  0  0  0  0  0
    8.5670   13.7050    0.8900 H   0  0  0  0  0  0  0  0  0  0  0  0
   11.1650   13.7070    0.8900 H   0  0  0  0  0  0  0  0  0  0  0  0
   11.1650   13.7070   -0.8900 H   0  0  0  0  0  0  0  0  0  0  0  0
   12.4640   15.7150    0.8900 H   0  0  0  0  0  0  0  0  0  0  0  0
   12.4640   15.7150   -0.8900 H   0  0  0  0  0  0  0  0  0  0  0  0
   13.3340   14.4290    0.0000 H   0  0  0  0  0  0  0  0  0  0  0  0
  1  2  1  0  0  0  0
  1  9  1  0  0  0  0
  1 10  1  0  0  0  0
  1 11  1  0  0  0  0
  2  3  1  0  0  0  0
  2 12  1  0  0  0  0
  2 13  1  0  0  0  0
  3  4  1  0  0  0  0
  4  5  1  0  0  0  0
  4 14  1  0  0  0  0
  4 15  1  0  0  0  0
  5  6  1  0  0  0  0
  5 16  1  0  0  0  0
  5 17  1  0  0  0  0
  6  7  1  0  0  0  0
  7  8  1  0  0  0  0
  7 18  1  0  0  0  0
  7 19  1  0  0  0  0
  8 20  1  0  0  0  0
  8 21  1  0  0  0  0
  8 22  1  0  0  0  0
M  END
