5g0i_19.pdb
  MOE2019           3D

 35 35  0  0  0  0  0  0  0  0999 V2000
    8.1520   -2.4570    0.0000 C   0  0  0  0  0  0  0  0  0  0  0  0
    7.0730   -2.4010    0.0000 H   0  0  0  0  0  0  0  0  0  0  0  0
    8.9690   -3.7150    0.0000 N   0  0  0  0  0  0  0  0  0  0  0  0
   10.4170   -3.3270    0.0000 N   0  0  0  0  0  0  0  0  0  0  0  0
   10.4960   -1.8290    0.0000 N   0  0  0  0  0  0  0  0  0  0  0  0
   11.7540   -1.0120    0.0000 C   0  0  0  0  0  0  0  0  0  0  0  0
   13.0910   -1.6930    0.0000 C   0  0  0  0  0  0  0  0  0  0  0  0
   14.3490   -0.8760    0.0000 O   0  0  0  0  0  0  0  0  0  0  0  0
   15.6850   -1.5570    0.0000 C   0  0  0  0  0  0  0  0  0  0  0  0
   16.9430   -0.7400    0.0000 C   0  0  0  0  0  0  0  0  0  0  0  0
   18.2800   -1.4210    0.0000 O   0  0  0  0  0  0  0  0  0  0  0  0
   19.5380   -0.6040    0.0000 C   0  0  0  0  0  0  0  0  0  0  0  0
   20.8740   -1.2850    0.0000 C   0  0  0  0  0  0  0  0  0  0  0  0
   22.1320   -0.4680    0.0000 O   0  0  0  0  0  0  0  0  0  0  0  0
   23.4690   -1.1490    0.0000 C   0  0  0  0  0  0  0  0  0  0  0  0
   24.7270   -0.3320    0.0000 C   0  0  0  0  0  0  0  0  0  0  0  0
    9.0960   -1.2910    0.0000 C   0  0  0  0  0  0  0  0  0  0  0  0
   11.7210   -0.3840    0.8900 H   0  0  0  0  0  0  0  0  0  0  0  0
   11.7210   -0.3840   -0.8900 H   0  0  0  0  0  0  0  0  0  0  0  0
   13.1240   -2.3210   -0.8900 H   0  0  0  0  0  0  0  0  0  0  0  0
   13.1240   -2.3210    0.8900 H   0  0  0  0  0  0  0  0  0  0  0  0
   15.7180   -2.1850   -0.8900 H   0  0  0  0  0  0  0  0  0  0  0  0
   15.7180   -2.1850    0.8900 H   0  0  0  0  0  0  0  0  0  0  0  0
   16.9100   -0.1120    0.8900 H   0  0  0  0  0  0  0  0  0  0  0  0
   16.9100   -0.1120   -0.8900 H   0  0  0  0  0  0  0  0  0  0  0  0
   19.5050    0.0240    0.8900 H   0  0  0  0  0  0  0  0  0  0  0  0
   19.5050    0.0240   -0.8900 H   0  0  0  0  0  0  0  0  0  0  0  0
   20.9070   -1.9130   -0.8900 H   0  0  0  0  0  0  0  0  0  0  0  0
   20.9070   -1.9130    0.8900 H   0  0  0  0  0  0  0  0  0  0  0  0
   23.5020   -1.7770   -0.8900 H   0  0  0  0  0  0  0  0  0  0  0  0
   23.5020   -1.7770    0.8900 H   0  0  0  0  0  0  0  0  0  0  0  0
   24.6940    0.2960    0.8900 H   0  0  0  0  0  0  0  0  0  0  0  0
   25.6300   -0.9420    0.0000 H   0  0  0  0  0  0  0  0  0  0  0  0
   24.6940    0.2960   -0.8900 H   0  0  0  0  0  0  0  0  0  0  0  0
    8.8170   -0.2480    0.0000 H   0  0  0  0  0  0  0  0  0  0  0  0
  1  2  1  0  0  0  0
  1  3  1  0  0  0  0
  1 17  2  0  0  0  0
  3  4  2  0  0  0  0
  4  5  1  0  0  0  0
  5  6  1  0  0  0  0
  5 17  1  0  0  0  0
  6  7  1  0  0  0  0
  6 18  1  0  0  0  0
  6 19  1  0  0  0  0
  7  8  1  0  0  0  0
  7 20  1  0  0  0  0
  7 21  1  0  0  0  0
  8  9  1  0  0  0  0
  9 10  1  0  0  0  0
  9 22  1  0  0  0  0
  9 23  1  0  0  0  0
 10 11  1  0  0  0  0
 10 24  1  0  0  0  0
 10 25  1  0  0  0  0
 11 12  1  0  0  0  0
 12 13  1  0  0  0  0
 12 26  1  0  0  0  0
 12 27  1  0  0  0  0
 13 14  1  0  0  0  0
 13 28  1  0  0  0  0
 13 29  1  0  0  0  0
 14 15  1  0  0  0  0
 15 16  1  0  0  0  0
 15 30  1  0  0  0  0
 15 31  1  0  0  0  0
 16 32  1  0  0  0  0
 16 33  1  0  0  0  0
 16 34  1  0  0  0  0
 17 35  1  0  0  0  0
M  END
