5g0i_11.pdb
  MOE2019           3D

 51 51  0  0  0  0  0  0  0  0999 V2000
   10.4680  -20.6300    0.0000 O   0  0  0  0  0  0  0  0  0  0  0  0
   10.4670  -20.0710   -0.7800 H   0  0  0  0  0  0  0  0  0  0  0  0
    9.1870  -21.4100    0.0000 C   0  0  0  0  0  0  0  0  0  0  0  0
    7.8710  -20.6900    0.0000 C   0  0  0  0  0  0  0  0  0  0  0  0
    6.5900  -21.4700    0.0000 C   0  0  0  0  0  0  0  0  0  0  0  0
    5.2740  -20.7510    0.0000 C   0  0  0  0  0  0  0  0  0  0  0  0
    3.9930  -21.5310    0.0000 C   0  0  0  0  0  0  0  0  0  0  0  0
    2.6760  -20.8120    0.0000 C   0  0  0  0  0  0  0  0  0  0  0  0
    1.3950  -21.5920    0.0000 C   0  0  0  0  0  0  0  0  0  0  0  0
    0.0790  -20.8730    0.0000 C   0  0  0  0  0  0  0  0  0  0  0  0
   -1.2020  -21.6530    0.0000 C   0  0  0  0  0  0  0  0  0  0  0  0
   -2.5180  -20.9330    0.0000 C   0  0  0  0  0  0  0  0  0  0  0  0
   -3.8000  -21.7140    0.0000 C   0  0  0  0  0  0  0  0  0  0  0  0
   -5.1160  -20.9940    0.0000 N   0  0  0  0  0  0  0  0  0  0  0  0
   -6.4710  -21.6360    0.0000 N   0  0  0  0  0  0  0  0  0  0  0  0
   -7.5010  -20.5450    0.0000 N   0  0  0  0  0  0  0  0  0  0  0  0
   -6.7820  -19.2290    0.0000 C   0  0  0  0  0  0  0  0  0  0  0  0
   -7.4240  -17.8730    0.0000 C   0  0  0  0  0  0  0  0  0  0  0  0
   -8.9190  -17.7510    0.0000 C   0  0  0  0  0  0  0  0  0  0  0  0
   -9.5610  -16.3960    0.0000 C   0  0  0  0  0  0  0  0  0  0  0  0
   -5.3070  -19.5060    0.0000 C   0  0  0  0  0  0  0  0  0  0  0  0
    9.2020  -22.0390   -0.8900 H   0  0  0  0  0  0  0  0  0  0  0  0
    9.2020  -22.0390    0.8900 H   0  0  0  0  0  0  0  0  0  0  0  0
    7.8560  -20.0610    0.8900 H   0  0  0  0  0  0  0  0  0  0  0  0
    7.8560  -20.0610   -0.8900 H   0  0  0  0  0  0  0  0  0  0  0  0
    6.6050  -22.0990   -0.8900 H   0  0  0  0  0  0  0  0  0  0  0  0
    6.6050  -22.0990    0.8900 H   0  0  0  0  0  0  0  0  0  0  0  0
    5.2590  -20.1220    0.8900 H   0  0  0  0  0  0  0  0  0  0  0  0
    5.2590  -20.1220   -0.8900 H   0  0  0  0  0  0  0  0  0  0  0  0
    4.0080  -22.1600   -0.8900 H   0  0  0  0  0  0  0  0  0  0  0  0
    4.0080  -22.1600    0.8900 H   0  0  0  0  0  0  0  0  0  0  0  0
    2.6610  -20.1830    0.8900 H   0  0  0  0  0  0  0  0  0  0  0  0
    2.6610  -20.1830   -0.8900 H   0  0  0  0  0  0  0  0  0  0  0  0
    1.4100  -22.2210    0.8900 H   0  0  0  0  0  0  0  0  0  0  0  0
    1.4100  -22.2210   -0.8900 H   0  0  0  0  0  0  0  0  0  0  0  0
    0.0640  -20.2440   -0.8900 H   0  0  0  0  0  0  0  0  0  0  0  0
    0.0640  -20.2440    0.8900 H   0  0  0  0  0  0  0  0  0  0  0  0
   -1.1870  -22.2820    0.8900 H   0  0  0  0  0  0  0  0  0  0  0  0
   -1.1870  -22.2820   -0.8900 H   0  0  0  0  0  0  0  0  0  0  0  0
   -2.5330  -20.3040   -0.8900 H   0  0  0  0  0  0  0  0  0  0  0  0
   -2.5330  -20.3040    0.8900 H   0  0  0  0  0  0  0  0  0  0  0  0
   -3.7850  -22.3430    0.8900 H   0  0  0  0  0  0  0  0  0  0  0  0
   -3.7850  -22.3430   -0.8900 H   0  0  0  0  0  0  0  0  0  0  0  0
   -7.0660  -17.3550    0.8900 H   0  0  0  0  0  0  0  0  0  0  0  0
   -7.0660  -17.3550   -0.8900 H   0  0  0  0  0  0  0  0  0  0  0  0
   -9.2770  -18.2690   -0.8900 H   0  0  0  0  0  0  0  0  0  0  0  0
   -9.2770  -18.2690    0.8900 H   0  0  0  0  0  0  0  0  0  0  0  0
   -9.2030  -15.8780   -0.8900 H   0  0  0  0  0  0  0  0  0  0  0  0
   -9.2030  -15.8780    0.8900 H   0  0  0  0  0  0  0  0  0  0  0  0
  -10.6500  -16.4430    0.0000 H   0  0  0  0  0  0  0  0  0  0  0  0
   -4.5220  -18.7650    0.0000 H   0  0  0  0  0  0  0  0  0  0  0  0
  1  2  1  0  0  0  0
  1  3  1  0  0  0  0
  3  4  1  0  0  0  0
  3 22  1  0  0  0  0
  3 23  1  0  0  0  0
  4  5  1  0  0  0  0
  4 24  1  0  0  0  0
  4 25  1  0  0  0  0
  5  6  1  0  0  0  0
  5 26  1  0  0  0  0
  5 27  1  0  0  0  0
  6  7  1  0  0  0  0
  6 28  1  0  0  0  0
  6 29  1  0  0  0  0
  7  8  1  0  0  0  0
  7 30  1  0  0  0  0
  7 31  1  0  0  0  0
  8  9  1  0  0  0  0
  8 32  1  0  0  0  0
  8 33  1  0  0  0  0
  9 10  1  0  0  0  0
  9 34  1  0  0  0  0
  9 35  1  0  0  0  0
 10 11  1  0  0  0  0
 10 36  1  0  0  0  0
 10 37  1  0  0  0  0
 11 12  1  0  0  0  0
 11 38  1  0  0  0  0
 11 39  1  0  0  0  0
 12 13  1  0  0  0  0
 12 40  1  0  0  0  0
 12 41  1  0  0  0  0
 13 14  1  0  0  0  0
 13 42  1  0  0  0  0
 13 43  1  0  0  0  0
 14 15  1  0  0  0  0
 14 21  1  0  0  0  0
 15 16  2  0  0  0  0
 16 17  1  0  0  0  0
 17 18  1  0  0  0  0
 17 21  2  0  0  0  0
 18 19  1  0  0  0  0
 18 44  1  0  0  0  0
 18 45  1  0  0  0  0
 19 20  1  0  0  0  0
 19 46  1  0  0  0  0
 19 47  1  0  0  0  0
 20 48  1  0  0  0  0
 20 49  1  0  0  0  0
 20 50  1  0  0  0  0
 21 51  1  0  0  0  0
M  END
