5g0j_5.pdb
  MOE2019           3D

 33 33  0  0  0  0  0  0  0  0999 V2000
    5.2860   16.8900    0.0000 O   0  0  0  0  0  0  0  0  0  0  0  0
    5.0200   17.3820   -0.7800 H   0  0  0  0  0  0  0  0  0  0  0  0
    4.5300   15.5950    0.0000 C   0  0  0  0  0  0  0  0  0  0  0  0
    3.0300   15.6020    0.0000 C   0  0  0  0  0  0  0  0  0  0  0  0
    2.2730   14.3070    0.0000 C   0  0  0  0  0  0  0  0  0  0  0  0
    0.7730   14.3140    0.0000 C   0  0  0  0  0  0  0  0  0  0  0  0
    0.0170   13.0190    0.0000 C   0  0  0  0  0  0  0  0  0  0  0  0
   -1.4830   13.0270    0.0000 N   0  0  0  0  0  0  0  0  0  0  0  0
   -2.3590   14.2450    0.0000 N   0  0  0  0  0  0  0  0  0  0  0  0
   -3.7880   13.7880    0.0000 N   0  0  0  0  0  0  0  0  0  0  0  0
   -3.7950   12.2880    0.0000 C   0  0  0  0  0  0  0  0  0  0  0  0
   -5.0130   11.4130    0.0000 C   0  0  0  0  0  0  0  0  0  0  0  0
   -6.3800   12.0300    0.0000 C   0  0  0  0  0  0  0  0  0  0  0  0
   -7.5980   11.1540    0.0000 C   0  0  0  0  0  0  0  0  0  0  0  0
   -2.3710   11.8180    0.0000 C   0  0  0  0  0  0  0  0  0  0  0  0
    4.8420   15.0490   -0.8900 H   0  0  0  0  0  0  0  0  0  0  0  0
    4.8420   15.0490    0.8900 H   0  0  0  0  0  0  0  0  0  0  0  0
    2.7180   16.1490    0.8900 H   0  0  0  0  0  0  0  0  0  0  0  0
    2.7180   16.1490   -0.8900 H   0  0  0  0  0  0  0  0  0  0  0  0
    2.5850   13.7600   -0.8900 H   0  0  0  0  0  0  0  0  0  0  0  0
    2.5850   13.7600    0.8900 H   0  0  0  0  0  0  0  0  0  0  0  0
    0.4610   14.8600   -0.8900 H   0  0  0  0  0  0  0  0  0  0  0  0
    0.4610   14.8600    0.8900 H   0  0  0  0  0  0  0  0  0  0  0  0
    0.3290   12.4720    0.8900 H   0  0  0  0  0  0  0  0  0  0  0  0
    0.3290   12.4720   -0.8900 H   0  0  0  0  0  0  0  0  0  0  0  0
   -4.9500   10.7870   -0.8900 H   0  0  0  0  0  0  0  0  0  0  0  0
   -4.9500   10.7870    0.8900 H   0  0  0  0  0  0  0  0  0  0  0  0
   -6.4430   12.6560    0.8900 H   0  0  0  0  0  0  0  0  0  0  0  0
   -6.4430   12.6560   -0.8900 H   0  0  0  0  0  0  0  0  0  0  0  0
   -7.5350   10.5280    0.8900 H   0  0  0  0  0  0  0  0  0  0  0  0
   -7.5350   10.5280   -0.8900 H   0  0  0  0  0  0  0  0  0  0  0  0
   -8.5290   11.7210    0.0000 H   0  0  0  0  0  0  0  0  0  0  0  0
   -2.0420   10.7890    0.0000 H   0  0  0  0  0  0  0  0  0  0  0  0
  1  2  1  0  0  0  0
  1  3  1  0  0  0  0
  3  4  1  0  0  0  0
  3 16  1  0  0  0  0
  3 17  1  0  0  0  0
  4  5  1  0  0  0  0
  4 18  1  0  0  0  0
  4 19  1  0  0  0  0
  5  6  1  0  0  0  0
  5 20  1  0  0  0  0
  5 21  1  0  0  0  0
  6  7  1  0  0  0  0
  6 22  1  0  0  0  0
  6 23  1  0  0  0  0
  7  8  1  0  0  0  0
  7 24  1  0  0  0  0
  7 25  1  0  0  0  0
  8  9  1  0  0  0  0
  8 15  1  0  0  0  0
  9 10  2  0  0  0  0
 10 11  1  0  0  0  0
 11 12  1  0  0  0  0
 11 15  2  0  0  0  0
 12 13  1  0  0  0  0
 12 26  1  0  0  0  0
 12 27  1  0  0  0  0
 13 14  1  0  0  0  0
 13 28  1  0  0  0  0
 13 29  1  0  0  0  0
 14 30  1  0  0  0  0
 14 31  1  0  0  0  0
 14 32  1  0  0  0  0
 15 33  1  0  0  0  0
M  END
