5g0j_3.pdb
  MOE2019           3D

 27 27  0  0  0  0  0  0  0  0999 V2000
    3.3030  -12.5010    0.0000 O   0  0  0  0  0  0  0  0  0  0  0  0
    3.0480  -12.0040   -0.7810 H   0  0  0  0  0  0  0  0  0  0  0  0
    2.5180  -13.7790    0.0000 C   0  0  0  0  0  0  0  0  0  0  0  0
    1.0180  -13.7370    0.0000 C   0  0  0  0  0  0  0  0  0  0  0  0
    0.2330  -15.0150    0.0000 C   0  0  0  0  0  0  0  0  0  0  0  0
   -1.2670  -14.9740    0.0000 N   0  0  0  0  0  0  0  0  0  0  0  0
   -2.1150  -13.7360    0.0000 N   0  0  0  0  0  0  0  0  0  0  0  0
   -3.5530  -14.1600    0.0000 N   0  0  0  0  0  0  0  0  0  0  0  0
   -3.5950  -15.6600    0.0000 C   0  0  0  0  0  0  0  0  0  0  0  0
   -4.8320  -16.5080    0.0000 C   0  0  0  0  0  0  0  0  0  0  0  0
   -6.1850  -15.8600    0.0000 C   0  0  0  0  0  0  0  0  0  0  0  0
   -7.4230  -16.7080    0.0000 C   0  0  0  0  0  0  0  0  0  0  0  0
   -2.1820  -16.1620    0.0000 C   0  0  0  0  0  0  0  0  0  0  0  0
    2.8170  -14.3320   -0.8900 H   0  0  0  0  0  0  0  0  0  0  0  0
    2.8170  -14.3320    0.8900 H   0  0  0  0  0  0  0  0  0  0  0  0
    0.7190  -13.1840    0.8900 H   0  0  0  0  0  0  0  0  0  0  0  0
    0.7190  -13.1840   -0.8900 H   0  0  0  0  0  0  0  0  0  0  0  0
    0.5330  -15.5680    0.8900 H   0  0  0  0  0  0  0  0  0  0  0  0
    0.5330  -15.5680   -0.8900 H   0  0  0  0  0  0  0  0  0  0  0  0
   -4.7830  -17.1350   -0.8900 H   0  0  0  0  0  0  0  0  0  0  0  0
   -4.7830  -17.1350    0.8900 H   0  0  0  0  0  0  0  0  0  0  0  0
   -6.2330  -15.2330    0.8900 H   0  0  0  0  0  0  0  0  0  0  0  0
   -6.2330  -15.2330   -0.8900 H   0  0  0  0  0  0  0  0  0  0  0  0
   -7.3750  -17.3350    0.8900 H   0  0  0  0  0  0  0  0  0  0  0  0
   -7.3750  -17.3350   -0.8900 H   0  0  0  0  0  0  0  0  0  0  0  0
   -8.3410  -16.1200    0.0000 H   0  0  0  0  0  0  0  0  0  0  0  0
   -1.8770  -17.1980    0.0000 H   0  0  0  0  0  0  0  0  0  0  0  0
  1  2  1  0  0  0  0
  1  3  1  0  0  0  0
  3  4  1  0  0  0  0
  3 14  1  0  0  0  0
  3 15  1  0  0  0  0
  4  5  1  0  0  0  0
  4 16  1  0  0  0  0
  4 17  1  0  0  0  0
  5  6  1  0  0  0  0
  5 18  1  0  0  0  0
  5 19  1  0  0  0  0
  6  7  1  0  0  0  0
  6 13  1  0  0  0  0
  7  8  2  0  0  0  0
  8  9  1  0  0  0  0
  9 10  1  0  0  0  0
  9 13  2  0  0  0  0
 10 11  1  0  0  0  0
 10 20  1  0  0  0  0
 10 21  1  0  0  0  0
 11 12  1  0  0  0  0
 11 22  1  0  0  0  0
 11 23  1  0  0  0  0
 12 24  1  0  0  0  0
 12 25  1  0  0  0  0
 12 26  1  0  0  0  0
 13 27  1  0  0  0  0
M  END
