5hzn_9.pdb
  MOE2019           3D

 22 21  0  0  0  0  0  0  0  0999 V2000
   19.4380    7.8760    0.0000 C   0  0  0  0  0  0  0  0  0  0  0  0
   20.7420    7.1340    0.0000 C   0  0  0  0  0  0  0  0  0  0  0  0
   22.0360    7.8930    0.0000 O   0  0  0  0  0  0  0  0  0  0  0  0
   23.3400    7.1520    0.0000 C   0  0  0  0  0  0  0  0  0  0  0  0
   24.6340    7.9100    0.0000 C   0  0  0  0  0  0  0  0  0  0  0  0
   25.9380    7.1690    0.0000 O   0  0  0  0  0  0  0  0  0  0  0  0
   27.2320    7.9270    0.0000 C   0  0  0  0  0  0  0  0  0  0  0  0
   28.5360    7.1860    0.0000 C   0  0  0  0  0  0  0  0  0  0  0  0
   19.4340    8.5050    0.8900 H   0  0  0  0  0  0  0  0  0  0  0  0
   18.5720    7.2130    0.0000 H   0  0  0  0  0  0  0  0  0  0  0  0
   19.4340    8.5050   -0.8900 H   0  0  0  0  0  0  0  0  0  0  0  0
   20.7460    6.5050   -0.8900 H   0  0  0  0  0  0  0  0  0  0  0  0
   20.7460    6.5050    0.8900 H   0  0  0  0  0  0  0  0  0  0  0  0
   23.3440    6.5230   -0.8900 H   0  0  0  0  0  0  0  0  0  0  0  0
   23.3440    6.5230    0.8900 H   0  0  0  0  0  0  0  0  0  0  0  0
   24.6300    8.5390    0.8900 H   0  0  0  0  0  0  0  0  0  0  0  0
   24.6300    8.5390   -0.8900 H   0  0  0  0  0  0  0  0  0  0  0  0
   27.2280    8.5560    0.8900 H   0  0  0  0  0  0  0  0  0  0  0  0
   27.2280    8.5560   -0.8900 H   0  0  0  0  0  0  0  0  0  0  0  0
   28.5400    6.5570   -0.8900 H   0  0  0  0  0  0  0  0  0  0  0  0
   29.4010    7.8490    0.0000 H   0  0  0  0  0  0  0  0  0  0  0  0
   28.5400    6.5570    0.8900 H   0  0  0  0  0  0  0  0  0  0  0  0
  1  2  1  0  0  0  0
  1  9  1  0  0  0  0
  1 10  1  0  0  0  0
  1 11  1  0  0  0  0
  2  3  1  0  0  0  0
  2 12  1  0  0  0  0
  2 13  1  0  0  0  0
  3  4  1  0  0  0  0
  4  5  1  0  0  0  0
  4 14  1  0  0  0  0
  4 15  1  0  0  0  0
  5  6  1  0  0  0  0
  5 16  1  0  0  0  0
  5 17  1  0  0  0  0
  6  7  1  0  0  0  0
  7  8  1  0  0  0  0
  7 18  1  0  0  0  0
  7 19  1  0  0  0  0
  8 20  1  0  0  0  0
  8 21  1  0  0  0  0
  8 22  1  0  0  0  0
M  END
