5j8o_9.pdb
  MOE2019           3D

 31 30  0  0  0  0  0  0  0  0999 V2000
    5.8100    8.9350    0.0000 C   0  0  0  0  0  0  0  0  0  0  0  0
    7.1090    9.6850    0.0000 C   0  0  0  0  0  0  0  0  0  0  0  0
    8.4080    8.9350    0.0000 N   0  0  0  0  0  0  0  0  0  0  0  0
    9.7070    9.6850    0.0000 C   0  0  0  0  0  0  0  0  0  0  0  0
    9.7070   11.1850    0.0000 O   0  0  0  0  0  0  0  0  0  0  0  0
   11.0060    8.9350    0.0000 C   0  0  0  0  0  0  0  0  0  0  0  0
   12.3050    9.6850    0.0000 C   0  0  0  0  0  0  0  0  0  0  0  0
   13.6040    8.9350    0.0000 C   0  0  0  0  0  0  0  0  0  0  0  0
   14.9030    9.6850    0.0000 C   0  0  0  0  0  0  0  0  0  0  0  0
   14.9030   11.1850    0.0000 O   0  0  0  0  0  0  0  0  0  0  0  0
   16.2020    8.9350    0.0000 N   0  0  0  0  0  0  0  0  0  0  0  0
    8.4080    7.4350    0.0000 C   0  0  0  0  0  0  0  0  0  0  0  0
    7.1090    6.6850    0.0000 C   0  0  0  0  0  0  0  0  0  0  0  0
    5.2650    9.2500    0.8900 H   0  0  0  0  0  0  0  0  0  0  0  0
    5.9440    7.8530    0.0000 H   0  0  0  0  0  0  0  0  0  0  0  0
    5.2650    9.2500   -0.8900 H   0  0  0  0  0  0  0  0  0  0  0  0
    7.1090   10.3140    0.8900 H   0  0  0  0  0  0  0  0  0  0  0  0
    7.1090   10.3140   -0.8900 H   0  0  0  0  0  0  0  0  0  0  0  0
   11.0060    8.3060   -0.8900 H   0  0  0  0  0  0  0  0  0  0  0  0
   11.0060    8.3060    0.8900 H   0  0  0  0  0  0  0  0  0  0  0  0
   12.3050   10.3140    0.8900 H   0  0  0  0  0  0  0  0  0  0  0  0
   12.3050   10.3140   -0.8900 H   0  0  0  0  0  0  0  0  0  0  0  0
   13.6040    8.3060   -0.8900 H   0  0  0  0  0  0  0  0  0  0  0  0
   13.6040    8.3060    0.8900 H   0  0  0  0  0  0  0  0  0  0  0  0
   16.2020    7.9250    0.0000 H   0  0  0  0  0  0  0  0  0  0  0  0
   17.0770    9.4400    0.0000 H   0  0  0  0  0  0  0  0  0  0  0  0
    8.9530    7.1200    0.8900 H   0  0  0  0  0  0  0  0  0  0  0  0
    8.9530    7.1200   -0.8900 H   0  0  0  0  0  0  0  0  0  0  0  0
    7.1090    6.0560   -0.8900 H   0  0  0  0  0  0  0  0  0  0  0  0
    6.2390    7.3420    0.0000 H   0  0  0  0  0  0  0  0  0  0  0  0
    7.1090    6.0560    0.8900 H   0  0  0  0  0  0  0  0  0  0  0  0
  1  2  1  0  0  0  0
  1 14  1  0  0  0  0
  1 15  1  0  0  0  0
  1 16  1  0  0  0  0
  2  3  1  0  0  0  0
  2 17  1  0  0  0  0
  2 18  1  0  0  0  0
  3  4  1  0  0  0  0
  3 12  1  0  0  0  0
  4  5  2  0  0  0  0
  4  6  1  0  0  0  0
  6  7  1  0  0  0  0
  6 19  1  0  0  0  0
  6 20  1  0  0  0  0
  7  8  1  0  0  0  0
  7 21  1  0  0  0  0
  7 22  1  0  0  0  0
  8  9  1  0  0  0  0
  8 23  1  0  0  0  0
  8 24  1  0  0  0  0
  9 10  2  0  0  0  0
  9 11  1  0  0  0  0
 11 25  1  0  0  0  0
 11 26  1  0  0  0  0
 12 13  1  0  0  0  0
 12 27  1  0  0  0  0
 12 28  1  0  0  0  0
 13 29  1  0  0  0  0
 13 30  1  0  0  0  0
 13 31  1  0  0  0  0
M  END
