5j8o_16.pdb
  MOE2019           3D

 22 21  0  0  0  0  0  0  0  0999 V2000
    7.8300   -6.2480    0.0000 C   0  0  0  0  0  0  0  0  0  0  0  0
    9.1290   -5.4980    0.0000 C   0  0  0  0  0  0  0  0  0  0  0  0
   10.4290   -6.2480    0.0000 N   0  0  0  0  0  0  0  0  0  0  0  0
   11.7280   -5.4980    0.0000 C   0  0  0  0  0  0  0  0  0  0  0  0
   11.7280   -3.9980    0.0000 O   0  0  0  0  0  0  0  0  0  0  0  0
   13.0270   -6.2480    0.0000 C   0  0  0  0  0  0  0  0  0  0  0  0
   14.3260   -5.4980    0.0000 C   0  0  0  0  0  0  0  0  0  0  0  0
   15.6250   -6.2480    0.0000 C   0  0  0  0  0  0  0  0  0  0  0  0
   15.6250   -7.7480    0.0000 O   0  0  0  0  0  0  0  0  0  0  0  0
   16.9240   -5.4980    0.0000 N   0  0  0  0  0  0  0  0  0  0  0  0
    7.8300   -6.8770   -0.8900 H   0  0  0  0  0  0  0  0  0  0  0  0
    6.9600   -5.5910    0.0000 H   0  0  0  0  0  0  0  0  0  0  0  0
    7.8300   -6.8770    0.8900 H   0  0  0  0  0  0  0  0  0  0  0  0
    9.1290   -4.8690    0.8900 H   0  0  0  0  0  0  0  0  0  0  0  0
    9.1290   -4.8690   -0.8900 H   0  0  0  0  0  0  0  0  0  0  0  0
   10.4290   -7.2580    0.0000 H   0  0  0  0  0  0  0  0  0  0  0  0
   13.0270   -6.8770   -0.8900 H   0  0  0  0  0  0  0  0  0  0  0  0
   13.0270   -6.8770    0.8900 H   0  0  0  0  0  0  0  0  0  0  0  0
   14.3260   -4.8690    0.8900 H   0  0  0  0  0  0  0  0  0  0  0  0
   14.3260   -4.8690   -0.8900 H   0  0  0  0  0  0  0  0  0  0  0  0
   17.7990   -6.0030    0.0000 H   0  0  0  0  0  0  0  0  0  0  0  0
   16.9240   -4.4880    0.0000 H   0  0  0  0  0  0  0  0  0  0  0  0
  1  2  1  0  0  0  0
  1 11  1  0  0  0  0
  1 12  1  0  0  0  0
  1 13  1  0  0  0  0
  2  3  1  0  0  0  0
  2 14  1  0  0  0  0
  2 15  1  0  0  0  0
  3  4  1  0  0  0  0
  3 16  1  0  0  0  0
  4  5  2  0  0  0  0
  4  6  1  0  0  0  0
  6  7  1  0  0  0  0
  6 17  1  0  0  0  0
  6 18  1  0  0  0  0
  7  8  1  0  0  0  0
  7 19  1  0  0  0  0
  7 20  1  0  0  0  0
  8  9  2  0  0  0  0
  8 10  1  0  0  0  0
 10 21  1  0  0  0  0
 10 22  1  0  0  0  0
M  END
