5j8o_13.pdb
  MOE2019           3D

 14 13  0  0  0  0  0  0  0  0999 V2000
    7.7520   -3.1140    0.0000 C   0  0  0  0  0  0  0  0  0  0  0  0
    9.0510   -2.3640    0.0000 C   0  0  0  0  0  0  0  0  0  0  0  0
   10.3500   -3.1140    0.0000 C   0  0  0  0  0  0  0  0  0  0  0  0
   11.6490   -2.3640    0.0000 C   0  0  0  0  0  0  0  0  0  0  0  0
    7.7520   -3.7430   -0.8900 H   0  0  0  0  0  0  0  0  0  0  0  0
    6.8820   -2.4570    0.0000 H   0  0  0  0  0  0  0  0  0  0  0  0
    7.7520   -3.7430    0.8900 H   0  0  0  0  0  0  0  0  0  0  0  0
    9.0510   -1.7350    0.8900 H   0  0  0  0  0  0  0  0  0  0  0  0
    9.0510   -1.7350   -0.8900 H   0  0  0  0  0  0  0  0  0  0  0  0
   10.3500   -3.7430   -0.8900 H   0  0  0  0  0  0  0  0  0  0  0  0
   10.3500   -3.7430    0.8900 H   0  0  0  0  0  0  0  0  0  0  0  0
   11.6490   -1.7350    0.8900 H   0  0  0  0  0  0  0  0  0  0  0  0
   12.5190   -3.0210    0.0000 H   0  0  0  0  0  0  0  0  0  0  0  0
   11.6490   -1.7350   -0.8900 H   0  0  0  0  0  0  0  0  0  0  0  0
  1  2  1  0  0  0  0
  1  5  1  0  0  0  0
  1  6  1  0  0  0  0
  1  7  1  0  0  0  0
  2  3  1  0  0  0  0
  2  8  1  0  0  0  0
  2  9  1  0  0  0  0
  3  4  1  0  0  0  0
  3 10  1  0  0  0  0
  3 11  1  0  0  0  0
  4 12  1  0  0  0  0
  4 13  1  0  0  0  0
  4 14  1  0  0  0  0
M  END
