5j8o_23.pdb
  MOE2019           3D

 28 27  0  0  0  0  0  0  0  0999 V2000
    8.0830    6.6620    0.0000 C   0  0  0  0  0  0  0  0  0  0  0  0
    9.3820    7.4120    0.0000 C   0  0  0  0  0  0  0  0  0  0  0  0
   10.6810    6.6620    0.0000 N   0  0  0  0  0  0  0  0  0  0  0  0
   11.9800    7.4120    0.0000 C   0  0  0  0  0  0  0  0  0  0  0  0
   11.9800    8.9120    0.0000 O   0  0  0  0  0  0  0  0  0  0  0  0
   13.2790    6.6620    0.0000 C   0  0  0  0  0  0  0  0  0  0  0  0
   14.5780    7.4120    0.0000 C   0  0  0  0  0  0  0  0  0  0  0  0
   15.8770    6.6620    0.0000 C   0  0  0  0  0  0  0  0  0  0  0  0
   15.8770    5.1620    0.0000 O   0  0  0  0  0  0  0  0  0  0  0  0
   17.1760    7.4120    0.0000 N   0  0  0  0  0  0  0  0  0  0  0  0
   10.6810    5.1620    0.0000 C   0  0  0  0  0  0  0  0  0  0  0  0
    9.3820    4.4120    0.0000 C   0  0  0  0  0  0  0  0  0  0  0  0
    7.5380    6.9770    0.8900 H   0  0  0  0  0  0  0  0  0  0  0  0
    8.2170    5.5800    0.0000 H   0  0  0  0  0  0  0  0  0  0  0  0
    7.5380    6.9770   -0.8900 H   0  0  0  0  0  0  0  0  0  0  0  0
    9.3820    8.0410    0.8900 H   0  0  0  0  0  0  0  0  0  0  0  0
    9.3820    8.0410   -0.8900 H   0  0  0  0  0  0  0  0  0  0  0  0
   13.2790    6.0330   -0.8900 H   0  0  0  0  0  0  0  0  0  0  0  0
   13.2790    6.0330    0.8900 H   0  0  0  0  0  0  0  0  0  0  0  0
   14.5780    8.0410    0.8900 H   0  0  0  0  0  0  0  0  0  0  0  0
   14.5780    8.0410   -0.8900 H   0  0  0  0  0  0  0  0  0  0  0  0
   17.1760    8.4220    0.0000 H   0  0  0  0  0  0  0  0  0  0  0  0
   18.0510    6.9070    0.0000 H   0  0  0  0  0  0  0  0  0  0  0  0
   11.2260    4.8470    0.8900 H   0  0  0  0  0  0  0  0  0  0  0  0
   11.2260    4.8470   -0.8900 H   0  0  0  0  0  0  0  0  0  0  0  0
    9.3820    3.7830   -0.8900 H   0  0  0  0  0  0  0  0  0  0  0  0
    8.5120    5.0690    0.0000 H   0  0  0  0  0  0  0  0  0  0  0  0
    9.3820    3.7830    0.8900 H   0  0  0  0  0  0  0  0  0  0  0  0
  1  2  1  0  0  0  0
  1 13  1  0  0  0  0
  1 14  1  0  0  0  0
  1 15  1  0  0  0  0
  2  3  1  0  0  0  0
  2 16  1  0  0  0  0
  2 17  1  0  0  0  0
  3  4  1  0  0  0  0
  3 11  1  0  0  0  0
  4  5  2  0  0  0  0
  4  6  1  0  0  0  0
  6  7  1  0  0  0  0
  6 18  1  0  0  0  0
  6 19  1  0  0  0  0
  7  8  1  0  0  0  0
  7 20  1  0  0  0  0
  7 21  1  0  0  0  0
  8  9  2  0  0  0  0
  8 10  1  0  0  0  0
 10 22  1  0  0  0  0
 10 23  1  0  0  0  0
 11 12  1  0  0  0  0
 11 24  1  0  0  0  0
 11 25  1  0  0  0  0
 12 26  1  0  0  0  0
 12 27  1  0  0  0  0
 12 28  1  0  0  0  0
M  END
