5j8o_7.pdb
  MOE2019           3D

 34 33  0  0  0  0  0  0  0  0999 V2000
    6.6450   -8.7250    0.0000 C   0  0  0  0  0  0  0  0  0  0  0  0
    8.1450   -8.7250    0.0000 C   0  0  0  0  0  0  0  0  0  0  0  0
    8.8950  -10.0240    0.0000 C   0  0  0  0  0  0  0  0  0  0  0  0
   10.3950  -10.0240    0.0000 C   0  0  0  0  0  0  0  0  0  0  0  0
   11.1450  -11.3230    0.0000 C   0  0  0  0  0  0  0  0  0  0  0  0
   12.6450  -11.3230    0.0000 N   0  0  0  0  0  0  0  0  0  0  0  0
   13.3950  -12.6220    0.0000 C   0  0  0  0  0  0  0  0  0  0  0  0
   12.6450  -13.9210    0.0000 O   0  0  0  0  0  0  0  0  0  0  0  0
   14.8950  -12.6220    0.0000 C   0  0  0  0  0  0  0  0  0  0  0  0
   15.6450  -11.3230    0.0000 C   0  0  0  0  0  0  0  0  0  0  0  0
   17.1450  -11.3230    0.0000 C   0  0  0  0  0  0  0  0  0  0  0  0
   17.8950  -10.0240    0.0000 C   0  0  0  0  0  0  0  0  0  0  0  0
   17.1450   -8.7250    0.0000 O   0  0  0  0  0  0  0  0  0  0  0  0
   19.3950  -10.0240    0.0000 N   0  0  0  0  0  0  0  0  0  0  0  0
    6.3300   -9.2700   -0.8900 H   0  0  0  0  0  0  0  0  0  0  0  0
    6.2210   -7.7210    0.0000 H   0  0  0  0  0  0  0  0  0  0  0  0
    6.3300   -9.2700    0.8900 H   0  0  0  0  0  0  0  0  0  0  0  0
    8.4600   -8.1800    0.8900 H   0  0  0  0  0  0  0  0  0  0  0  0
    8.4600   -8.1800   -0.8900 H   0  0  0  0  0  0  0  0  0  0  0  0
    8.5800  -10.5690   -0.8900 H   0  0  0  0  0  0  0  0  0  0  0  0
    8.5800  -10.5690    0.8900 H   0  0  0  0  0  0  0  0  0  0  0  0
   10.7100   -9.4790    0.8900 H   0  0  0  0  0  0  0  0  0  0  0  0
   10.7100   -9.4790   -0.8900 H   0  0  0  0  0  0  0  0  0  0  0  0
   10.8300  -11.8680   -0.8900 H   0  0  0  0  0  0  0  0  0  0  0  0
   10.8300  -11.8680    0.8900 H   0  0  0  0  0  0  0  0  0  0  0  0
   13.1500  -10.4480    0.0000 H   0  0  0  0  0  0  0  0  0  0  0  0
   15.2100  -13.1670   -0.8900 H   0  0  0  0  0  0  0  0  0  0  0  0
   15.2100  -13.1670    0.8900 H   0  0  0  0  0  0  0  0  0  0  0  0
   15.3300  -10.7780    0.8900 H   0  0  0  0  0  0  0  0  0  0  0  0
   15.3300  -10.7780   -0.8900 H   0  0  0  0  0  0  0  0  0  0  0  0
   17.4600  -11.8680   -0.8900 H   0  0  0  0  0  0  0  0  0  0  0  0
   17.4600  -11.8680    0.8900 H   0  0  0  0  0  0  0  0  0  0  0  0
   19.9000   -9.1490    0.0000 H   0  0  0  0  0  0  0  0  0  0  0  0
   19.9000  -10.8990    0.0000 H   0  0  0  0  0  0  0  0  0  0  0  0
  1  2  1  0  0  0  0
  1 15  1  0  0  0  0
  1 16  1  0  0  0  0
  1 17  1  0  0  0  0
  2  3  1  0  0  0  0
  2 18  1  0  0  0  0
  2 19  1  0  0  0  0
  3  4  1  0  0  0  0
  3 20  1  0  0  0  0
  3 21  1  0  0  0  0
  4  5  1  0  0  0  0
  4 22  1  0  0  0  0
  4 23  1  0  0  0  0
  5  6  1  0  0  0  0
  5 24  1  0  0  0  0
  5 25  1  0  0  0  0
  6  7  1  0  0  0  0
  6 26  1  0  0  0  0
  7  8  2  0  0  0  0
  7  9  1  0  0  0  0
  9 10  1  0  0  0  0
  9 27  1  0  0  0  0
  9 28  1  0  0  0  0
 10 11  1  0  0  0  0
 10 29  1  0  0  0  0
 10 30  1  0  0  0  0
 11 12  1  0  0  0  0
 11 31  1  0  0  0  0
 11 32  1  0  0  0  0
 12 13  2  0  0  0  0
 12 14  1  0  0  0  0
 14 33  1  0  0  0  0
 14 34  1  0  0  0  0
M  END
