5j8o_1.pdb
  MOE2019           3D

 25 24  0  0  0  0  0  0  0  0999 V2000
    5.4870   -9.2050    0.0000 C   0  0  0  0  0  0  0  0  0  0  0  0
    3.9870   -9.2050    0.0000 C   0  0  0  0  0  0  0  0  0  0  0  0
    3.2370  -10.5040    0.0000 N   0  0  0  0  0  0  0  0  0  0  0  0
    1.7370  -10.5040    0.0000 C   0  0  0  0  0  0  0  0  0  0  0  0
    0.9870  -11.8030    0.0000 O   0  0  0  0  0  0  0  0  0  0  0  0
    0.9870   -9.2050    0.0000 C   0  0  0  0  0  0  0  0  0  0  0  0
   -0.5130   -9.2050    0.0000 C   0  0  0  0  0  0  0  0  0  0  0  0
   -1.2630   -7.9060    0.0000 C   0  0  0  0  0  0  0  0  0  0  0  0
   -2.7630   -7.9060    0.0000 C   0  0  0  0  0  0  0  0  0  0  0  0
   -3.5130   -9.2050    0.0000 O   0  0  0  0  0  0  0  0  0  0  0  0
   -3.5130   -6.6070    0.0000 N   0  0  0  0  0  0  0  0  0  0  0  0
    5.8020   -9.7500    0.8900 H   0  0  0  0  0  0  0  0  0  0  0  0
    5.9110   -8.2010    0.0000 H   0  0  0  0  0  0  0  0  0  0  0  0
    5.8020   -9.7500   -0.8900 H   0  0  0  0  0  0  0  0  0  0  0  0
    3.6720   -8.6600   -0.8900 H   0  0  0  0  0  0  0  0  0  0  0  0
    3.6720   -8.6600    0.8900 H   0  0  0  0  0  0  0  0  0  0  0  0
    3.7420  -11.3790    0.0000 H   0  0  0  0  0  0  0  0  0  0  0  0
    1.3020   -8.6600   -0.8900 H   0  0  0  0  0  0  0  0  0  0  0  0
    1.3020   -8.6600    0.8900 H   0  0  0  0  0  0  0  0  0  0  0  0
   -0.8280   -9.7500    0.8900 H   0  0  0  0  0  0  0  0  0  0  0  0
   -0.8280   -9.7500   -0.8900 H   0  0  0  0  0  0  0  0  0  0  0  0
   -0.9480   -7.3610   -0.8900 H   0  0  0  0  0  0  0  0  0  0  0  0
   -0.9480   -7.3610    0.8900 H   0  0  0  0  0  0  0  0  0  0  0  0
   -3.0080   -5.7320    0.0000 H   0  0  0  0  0  0  0  0  0  0  0  0
   -4.5230   -6.6070    0.0000 H   0  0  0  0  0  0  0  0  0  0  0  0
  1  2  1  0  0  0  0
  1 12  1  0  0  0  0
  1 13  1  0  0  0  0
  1 14  1  0  0  0  0
  2  3  1  0  0  0  0
  2 15  1  0  0  0  0
  2 16  1  0  0  0  0
  3  4  1  0  0  0  0
  3 17  1  0  0  0  0
  4  5  2  0  0  0  0
  4  6  1  0  0  0  0
  6  7  1  0  0  0  0
  6 18  1  0  0  0  0
  6 19  1  0  0  0  0
  7  8  1  0  0  0  0
  7 20  1  0  0  0  0
  7 21  1  0  0  0  0
  8  9  1  0  0  0  0
  8 22  1  0  0  0  0
  8 23  1  0  0  0  0
  9 10  2  0  0  0  0
  9 11  1  0  0  0  0
 11 24  1  0  0  0  0
 11 25  1  0  0  0  0
M  END
