5j8o_22.pdb
  MOE2019           3D

 31 30  0  0  0  0  0  0  0  0999 V2000
    6.6980    8.0470    0.0000 C   0  0  0  0  0  0  0  0  0  0  0  0
    7.9970    8.7970    0.0000 C   0  0  0  0  0  0  0  0  0  0  0  0
    9.2960    8.0470    0.0000 N   0  0  0  0  0  0  0  0  0  0  0  0
   10.5950    8.7970    0.0000 C   0  0  0  0  0  0  0  0  0  0  0  0
   10.5950   10.2970    0.0000 O   0  0  0  0  0  0  0  0  0  0  0  0
   11.8940    8.0470    0.0000 C   0  0  0  0  0  0  0  0  0  0  0  0
   13.1930    8.7970    0.0000 C   0  0  0  0  0  0  0  0  0  0  0  0
   14.4920    8.0470    0.0000 C   0  0  0  0  0  0  0  0  0  0  0  0
   15.7920    8.7970    0.0000 C   0  0  0  0  0  0  0  0  0  0  0  0
   15.7920   10.2970    0.0000 O   0  0  0  0  0  0  0  0  0  0  0  0
   17.0910    8.0470    0.0000 N   0  0  0  0  0  0  0  0  0  0  0  0
    9.2960    6.5470    0.0000 C   0  0  0  0  0  0  0  0  0  0  0  0
    7.9970    5.7970    0.0000 C   0  0  0  0  0  0  0  0  0  0  0  0
    6.1530    8.3620    0.8900 H   0  0  0  0  0  0  0  0  0  0  0  0
    6.8320    6.9650    0.0000 H   0  0  0  0  0  0  0  0  0  0  0  0
    6.1530    8.3620   -0.8900 H   0  0  0  0  0  0  0  0  0  0  0  0
    7.9970    9.4260    0.8900 H   0  0  0  0  0  0  0  0  0  0  0  0
    7.9970    9.4260   -0.8900 H   0  0  0  0  0  0  0  0  0  0  0  0
   11.8940    7.4180   -0.8900 H   0  0  0  0  0  0  0  0  0  0  0  0
   11.8940    7.4180    0.8900 H   0  0  0  0  0  0  0  0  0  0  0  0
   13.1930    9.4260    0.8900 H   0  0  0  0  0  0  0  0  0  0  0  0
   13.1930    9.4260   -0.8900 H   0  0  0  0  0  0  0  0  0  0  0  0
   14.4920    7.4180   -0.8900 H   0  0  0  0  0  0  0  0  0  0  0  0
   14.4920    7.4180    0.8900 H   0  0  0  0  0  0  0  0  0  0  0  0
   17.0910    7.0370    0.0000 H   0  0  0  0  0  0  0  0  0  0  0  0
   17.9660    8.5520    0.0000 H   0  0  0  0  0  0  0  0  0  0  0  0
    9.8410    6.2320    0.8900 H   0  0  0  0  0  0  0  0  0  0  0  0
    9.8410    6.2320   -0.8900 H   0  0  0  0  0  0  0  0  0  0  0  0
    7.9970    5.1680   -0.8900 H   0  0  0  0  0  0  0  0  0  0  0  0
    7.1270    6.4540    0.0000 H   0  0  0  0  0  0  0  0  0  0  0  0
    7.9970    5.1680    0.8900 H   0  0  0  0  0  0  0  0  0  0  0  0
  1  2  1  0  0  0  0
  1 14  1  0  0  0  0
  1 15  1  0  0  0  0
  1 16  1  0  0  0  0
  2  3  1  0  0  0  0
  2 17  1  0  0  0  0
  2 18  1  0  0  0  0
  3  4  1  0  0  0  0
  3 12  1  0  0  0  0
  4  5  2  0  0  0  0
  4  6  1  0  0  0  0
  6  7  1  0  0  0  0
  6 19  1  0  0  0  0
  6 20  1  0  0  0  0
  7  8  1  0  0  0  0
  7 21  1  0  0  0  0
  7 22  1  0  0  0  0
  8  9  1  0  0  0  0
  8 23  1  0  0  0  0
  8 24  1  0  0  0  0
  9 10  2  0  0  0  0
  9 11  1  0  0  0  0
 11 25  1  0  0  0  0
 11 26  1  0  0  0  0
 12 13  1  0  0  0  0
 12 27  1  0  0  0  0
 12 28  1  0  0  0  0
 13 29  1  0  0  0  0
 13 30  1  0  0  0  0
 13 31  1  0  0  0  0
M  END
