5l2i_26.pdb
  MOE2019           3D

 22 21  0  0  0  0  0  0  0  0999 V2000
    6.6050   -7.8930    0.0000 O   0  0  0  0  0  0  0  0  0  0  0  0
    6.6050   -9.3930    0.0000 C   0  0  0  0  0  0  0  0  0  0  0  0
    5.3060  -10.1430    0.0000 N   0  0  0  0  0  0  0  0  0  0  0  0
    4.0070   -9.3930    0.0000 C   0  0  0  0  0  0  0  0  0  0  0  0
    2.7080  -10.1430    0.0000 C   0  0  0  0  0  0  0  0  0  0  0  0
    1.4090   -9.3930    0.0000 C   0  0  0  0  0  0  0  0  0  0  0  0
    0.1100  -10.1430    0.0000 C   0  0  0  0  0  0  0  0  0  0  0  0
    7.9040  -10.1430    0.0000 C   0  0  0  0  0  0  0  0  0  0  0  0
    9.2030   -9.3930    0.0000 O   0  0  0  0  0  0  0  0  0  0  0  0
    9.2160   -8.8340   -0.7800 H   0  0  0  0  0  0  0  0  0  0  0  0
    5.3060  -11.1530    0.0000 H   0  0  0  0  0  0  0  0  0  0  0  0
    4.0070   -8.7640   -0.8900 H   0  0  0  0  0  0  0  0  0  0  0  0
    4.0070   -8.7640    0.8900 H   0  0  0  0  0  0  0  0  0  0  0  0
    2.7080  -10.7720    0.8900 H   0  0  0  0  0  0  0  0  0  0  0  0
    2.7080  -10.7720   -0.8900 H   0  0  0  0  0  0  0  0  0  0  0  0
    1.4090   -8.7640   -0.8900 H   0  0  0  0  0  0  0  0  0  0  0  0
    1.4090   -8.7640    0.8900 H   0  0  0  0  0  0  0  0  0  0  0  0
    0.1100  -10.7720    0.8900 H   0  0  0  0  0  0  0  0  0  0  0  0
    0.1100  -10.7720   -0.8900 H   0  0  0  0  0  0  0  0  0  0  0  0
   -0.7600   -9.4860    0.0000 H   0  0  0  0  0  0  0  0  0  0  0  0
    7.9040  -10.7720   -0.8900 H   0  0  0  0  0  0  0  0  0  0  0  0
    7.9040  -10.7720    0.8900 H   0  0  0  0  0  0  0  0  0  0  0  0
  1  2  2  0  0  0  0
  2  3  1  0  0  0  0
  2  8  1  0  0  0  0
  3  4  1  0  0  0  0
  3 11  1  0  0  0  0
  4  5  1  0  0  0  0
  4 12  1  0  0  0  0
  4 13  1  0  0  0  0
  5  6  1  0  0  0  0
  5 14  1  0  0  0  0
  5 15  1  0  0  0  0
  6  7  1  0  0  0  0
  6 16  1  0  0  0  0
  6 17  1  0  0  0  0
  7 18  1  0  0  0  0
  7 19  1  0  0  0  0
  7 20  1  0  0  0  0
  8  9  1  0  0  0  0
  8 21  1  0  0  0  0
  8 22  1  0  0  0  0
  9 10  1  0  0  0  0
M  END
