5l2i_8.pdb
  MOE2019           3D

 20 19  0  0  0  0  0  0  0  0999 V2000
    0.2120    0.3660    0.0000 C   0  0  0  0  0  0  0  0  0  0  0  0
   -0.5380    1.6650    0.0000 C   0  0  0  0  0  0  0  0  0  0  0  0
   -2.0380    1.6650    0.0000 C   0  0  0  0  0  0  0  0  0  0  0  0
   -2.7880    2.9640    0.0000 C   0  0  0  0  0  0  0  0  0  0  0  0
   -4.2880    2.9640    0.0000 C   0  0  0  0  0  0  0  0  0  0  0  0
   -5.0380    4.2640    0.0000 C   0  0  0  0  0  0  0  0  0  0  0  0
   -0.1030   -0.1790   -0.8900 H   0  0  0  0  0  0  0  0  0  0  0  0
   -0.1030   -0.1790    0.8900 H   0  0  0  0  0  0  0  0  0  0  0  0
    1.2940    0.5000    0.0000 H   0  0  0  0  0  0  0  0  0  0  0  0
   -0.2230    2.2100    0.8900 H   0  0  0  0  0  0  0  0  0  0  0  0
   -0.2230    2.2100   -0.8900 H   0  0  0  0  0  0  0  0  0  0  0  0
   -2.3530    1.1200    0.8900 H   0  0  0  0  0  0  0  0  0  0  0  0
   -2.3530    1.1200   -0.8900 H   0  0  0  0  0  0  0  0  0  0  0  0
   -2.4730    3.5090   -0.8900 H   0  0  0  0  0  0  0  0  0  0  0  0
   -2.4730    3.5090    0.8900 H   0  0  0  0  0  0  0  0  0  0  0  0
   -4.6030    2.4190    0.8900 H   0  0  0  0  0  0  0  0  0  0  0  0
   -4.6030    2.4190   -0.8900 H   0  0  0  0  0  0  0  0  0  0  0  0
   -4.7230    4.8090   -0.8900 H   0  0  0  0  0  0  0  0  0  0  0  0
   -4.7230    4.8090    0.8900 H   0  0  0  0  0  0  0  0  0  0  0  0
   -6.1200    4.1300    0.0000 H   0  0  0  0  0  0  0  0  0  0  0  0
  1  2  1  0  0  0  0
  1  7  1  0  0  0  0
  1  8  1  0  0  0  0
  1  9  1  0  0  0  0
  2  3  1  0  0  0  0
  2 10  1  0  0  0  0
  2 11  1  0  0  0  0
  3  4  1  0  0  0  0
  3 12  1  0  0  0  0
  3 13  1  0  0  0  0
  4  5  1  0  0  0  0
  4 14  1  0  0  0  0
  4 15  1  0  0  0  0
  5  6  1  0  0  0  0
  5 16  1  0  0  0  0
  5 17  1  0  0  0  0
  6 18  1  0  0  0  0
  6 19  1  0  0  0  0
  6 20  1  0  0  0  0
M  END
