5l2i_17.pdb
  MOE2019           3D

 27 26  0  0  0  0  0  0  0  0999 V2000
    1.8620   -1.0360    0.0000 O   0  0  0  0  0  0  0  0  0  0  0  0
    3.1610   -0.2860    0.0000 C   0  0  0  0  0  0  0  0  0  0  0  0
    4.4600   -1.0360    0.0000 N   0  0  0  0  0  0  0  0  0  0  0  0
    5.7590   -0.2860    0.0000 C   0  0  0  0  0  0  0  0  0  0  0  0
    7.0580   -1.0360    0.0000 C   0  0  0  0  0  0  0  0  0  0  0  0
    8.3570   -0.2860    0.0000 C   0  0  0  0  0  0  0  0  0  0  0  0
    9.6560   -1.0360    0.0000 C   0  0  0  0  0  0  0  0  0  0  0  0
   10.9550   -0.2860    0.0000 C   0  0  0  0  0  0  0  0  0  0  0  0
   12.2540   -1.0360    0.0000 C   0  0  0  0  0  0  0  0  0  0  0  0
    3.1610    1.2140    0.0000 C   0  0  0  0  0  0  0  0  0  0  0  0
    4.4600   -2.0460    0.0000 H   0  0  0  0  0  0  0  0  0  0  0  0
    5.7590    0.3430    0.8900 H   0  0  0  0  0  0  0  0  0  0  0  0
    5.7590    0.3430   -0.8900 H   0  0  0  0  0  0  0  0  0  0  0  0
    7.0580   -1.6650   -0.8900 H   0  0  0  0  0  0  0  0  0  0  0  0
    7.0580   -1.6650    0.8900 H   0  0  0  0  0  0  0  0  0  0  0  0
    8.3570    0.3430    0.8900 H   0  0  0  0  0  0  0  0  0  0  0  0
    8.3570    0.3430   -0.8900 H   0  0  0  0  0  0  0  0  0  0  0  0
    9.6560   -1.6650   -0.8900 H   0  0  0  0  0  0  0  0  0  0  0  0
    9.6560   -1.6650    0.8900 H   0  0  0  0  0  0  0  0  0  0  0  0
   10.9550    0.3430    0.8900 H   0  0  0  0  0  0  0  0  0  0  0  0
   10.9550    0.3430   -0.8900 H   0  0  0  0  0  0  0  0  0  0  0  0
   12.2540   -1.6650   -0.8900 H   0  0  0  0  0  0  0  0  0  0  0  0
   13.1240   -0.3790    0.0000 H   0  0  0  0  0  0  0  0  0  0  0  0
   12.2540   -1.6650    0.8900 H   0  0  0  0  0  0  0  0  0  0  0  0
    3.7060    1.5290   -0.8900 H   0  0  0  0  0  0  0  0  0  0  0  0
    3.7060    1.5290    0.8900 H   0  0  0  0  0  0  0  0  0  0  0  0
    2.1570    1.6380    0.0000 H   0  0  0  0  0  0  0  0  0  0  0  0
  1  2  2  0  0  0  0
  2  3  1  0  0  0  0
  2 10  1  0  0  0  0
  3  4  1  0  0  0  0
  3 11  1  0  0  0  0
  4  5  1  0  0  0  0
  4 12  1  0  0  0  0
  4 13  1  0  0  0  0
  5  6  1  0  0  0  0
  5 14  1  0  0  0  0
  5 15  1  0  0  0  0
  6  7  1  0  0  0  0
  6 16  1  0  0  0  0
  6 17  1  0  0  0  0
  7  8  1  0  0  0  0
  7 18  1  0  0  0  0
  7 19  1  0  0  0  0
  8  9  1  0  0  0  0
  8 20  1  0  0  0  0
  8 21  1  0  0  0  0
  9 22  1  0  0  0  0
  9 23  1  0  0  0  0
  9 24  1  0  0  0  0
 10 25  1  0  0  0  0
 10 26  1  0  0  0  0
 10 27  1  0  0  0  0
M  END
