5l2i_9.pdb
  MOE2019           3D

 23 22  0  0  0  0  0  0  0  0999 V2000
   -0.7590  -11.8230    0.0000 O   0  0  0  0  0  0  0  0  0  0  0  0
   -1.4680  -11.1760    0.0000 H   0  0  0  0  0  0  0  0  0  0  0  0
    0.5400  -11.0730    0.0000 C   0  0  0  0  0  0  0  0  0  0  0  0
    1.8390  -11.8230    0.0000 C   0  0  0  0  0  0  0  0  0  0  0  0
    3.1380  -11.0730    0.0000 O   0  0  0  0  0  0  0  0  0  0  0  0
    4.4370  -11.8230    0.0000 C   0  0  0  0  0  0  0  0  0  0  0  0
    5.7360  -11.0730    0.0000 C   0  0  0  0  0  0  0  0  0  0  0  0
    7.0360  -11.8230    0.0000 O   0  0  0  0  0  0  0  0  0  0  0  0
    8.3350  -11.0730    0.0000 C   0  0  0  0  0  0  0  0  0  0  0  0
    9.6340  -11.8230    0.0000 C   0  0  0  0  0  0  0  0  0  0  0  0
    0.5400  -10.4440   -0.8900 H   0  0  0  0  0  0  0  0  0  0  0  0
    0.5400  -10.4440    0.8900 H   0  0  0  0  0  0  0  0  0  0  0  0
    1.8390  -12.4520   -0.8900 H   0  0  0  0  0  0  0  0  0  0  0  0
    1.8390  -12.4520    0.8900 H   0  0  0  0  0  0  0  0  0  0  0  0
    4.4370  -12.4520    0.8900 H   0  0  0  0  0  0  0  0  0  0  0  0
    4.4370  -12.4520   -0.8900 H   0  0  0  0  0  0  0  0  0  0  0  0
    5.7360  -10.4440    0.8900 H   0  0  0  0  0  0  0  0  0  0  0  0
    5.7360  -10.4440   -0.8900 H   0  0  0  0  0  0  0  0  0  0  0  0
    8.3350  -10.4440   -0.8900 H   0  0  0  0  0  0  0  0  0  0  0  0
    8.3350  -10.4440    0.8900 H   0  0  0  0  0  0  0  0  0  0  0  0
    9.6340  -12.4520   -0.8900 H   0  0  0  0  0  0  0  0  0  0  0  0
    9.6340  -12.4520    0.8900 H   0  0  0  0  0  0  0  0  0  0  0  0
   10.5040  -11.1660    0.0000 H   0  0  0  0  0  0  0  0  0  0  0  0
  1  2  1  0  0  0  0
  1  3  1  0  0  0  0
  3  4  1  0  0  0  0
  3 11  1  0  0  0  0
  3 12  1  0  0  0  0
  4  5  1  0  0  0  0
  4 13  1  0  0  0  0
  4 14  1  0  0  0  0
  5  6  1  0  0  0  0
  6  7  1  0  0  0  0
  6 15  1  0  0  0  0
  6 16  1  0  0  0  0
  7  8  1  0  0  0  0
  7 17  1  0  0  0  0
  7 18  1  0  0  0  0
  8  9  1  0  0  0  0
  9 10  1  0  0  0  0
  9 19  1  0  0  0  0
  9 20  1  0  0  0  0
 10 21  1  0  0  0  0
 10 22  1  0  0  0  0
 10 23  1  0  0  0  0
M  END
