5l2s_1.pdb
  MOE2019           3D

 21 21  0  0  0  0  0  0  0  0999 V2000
   16.3840   -0.4300    0.0000 C   0  0  0  0  0  0  0  0  0  0  0  0
   15.4270   -0.9310    0.0000 H   0  0  0  0  0  0  0  0  0  0  0  0
   17.7280   -1.0960    0.0000 N   0  0  0  0  0  0  0  0  0  0  0  0
   18.7770   -0.0230    0.0000 N   0  0  0  0  0  0  0  0  0  0  0  0
   18.0810    1.3060    0.0000 N   0  0  0  0  0  0  0  0  0  0  0  0
   18.7470    2.6500    0.0000 C   0  0  0  0  0  0  0  0  0  0  0  0
   20.2440    2.7450    0.0000 C   0  0  0  0  0  0  0  0  0  0  0  0
   20.9100    4.0890    0.0000 O   0  0  0  0  0  0  0  0  0  0  0  0
   22.4070    4.1840    0.0000 C   0  0  0  0  0  0  0  0  0  0  0  0
   23.0730    5.5280    0.0000 C   0  0  0  0  0  0  0  0  0  0  0  0
   16.6020    1.0540    0.0000 C   0  0  0  0  0  0  0  0  0  0  0  0
   18.3980    3.1740    0.8900 H   0  0  0  0  0  0  0  0  0  0  0  0
   18.3980    3.1740   -0.8900 H   0  0  0  0  0  0  0  0  0  0  0  0
   20.5930    2.2210   -0.8900 H   0  0  0  0  0  0  0  0  0  0  0  0
   20.5930    2.2210    0.8900 H   0  0  0  0  0  0  0  0  0  0  0  0
   22.7560    3.6600   -0.8900 H   0  0  0  0  0  0  0  0  0  0  0  0
   22.7560    3.6600    0.8900 H   0  0  0  0  0  0  0  0  0  0  0  0
   22.7240    6.0520    0.8900 H   0  0  0  0  0  0  0  0  0  0  0  0
   24.1610    5.4620    0.0000 H   0  0  0  0  0  0  0  0  0  0  0  0
   22.7240    6.0520   -0.8900 H   0  0  0  0  0  0  0  0  0  0  0  0
   15.8300    1.8090    0.0000 H   0  0  0  0  0  0  0  0  0  0  0  0
  1  2  1  0  0  0  0
  1  3  1  0  0  0  0
  1 11  2  0  0  0  0
  3  4  2  0  0  0  0
  4  5  1  0  0  0  0
  5  6  1  0  0  0  0
  5 11  1  0  0  0  0
  6  7  1  0  0  0  0
  6 12  1  0  0  0  0
  6 13  1  0  0  0  0
  7  8  1  0  0  0  0
  7 14  1  0  0  0  0
  7 15  1  0  0  0  0
  8  9  1  0  0  0  0
  9 10  1  0  0  0  0
  9 16  1  0  0  0  0
  9 17  1  0  0  0  0
 10 18  1  0  0  0  0
 10 19  1  0  0  0  0
 10 20  1  0  0  0  0
 11 21  1  0  0  0  0
M  END
