5l2t_1.pdb
  MOE2019           3D

 24 24  0  0  0  0  0  0  0  0999 V2000
   13.4430  -12.7050    0.0000 C   0  0  0  0  0  0  0  0  0  0  0  0
   14.7060  -11.8970    0.0000 C   0  0  0  0  0  0  0  0  0  0  0  0
   14.7940  -10.3990    0.0000 N   0  0  0  0  0  0  0  0  0  0  0  0
   16.2460  -10.0200    0.0000 N   0  0  0  0  0  0  0  0  0  0  0  0
   17.0550  -11.2840    0.0000 N   0  0  0  0  0  0  0  0  0  0  0  0
   18.5520  -11.3720    0.0000 C   0  0  0  0  0  0  0  0  0  0  0  0
   19.3770  -10.1190    0.0000 C   0  0  0  0  0  0  0  0  0  0  0  0
   20.8740  -10.2070    0.0000 O   0  0  0  0  0  0  0  0  0  0  0  0
   21.7000   -8.9550    0.0000 C   0  0  0  0  0  0  0  0  0  0  0  0
   23.1970   -9.0430    0.0000 C   0  0  0  0  0  0  0  0  0  0  0  0
   16.1030  -12.4430    0.0000 C   0  0  0  0  0  0  0  0  0  0  0  0
   13.4720  -13.3340   -0.8900 H   0  0  0  0  0  0  0  0  0  0  0  0
   13.4720  -13.3340    0.8900 H   0  0  0  0  0  0  0  0  0  0  0  0
   12.5440  -12.0880    0.0000 H   0  0  0  0  0  0  0  0  0  0  0  0
   18.8340  -11.9350   -0.8900 H   0  0  0  0  0  0  0  0  0  0  0  0
   18.8340  -11.9350    0.8900 H   0  0  0  0  0  0  0  0  0  0  0  0
   19.0950   -9.5560    0.8900 H   0  0  0  0  0  0  0  0  0  0  0  0
   19.0950   -9.5560   -0.8900 H   0  0  0  0  0  0  0  0  0  0  0  0
   21.4180   -8.3920    0.8900 H   0  0  0  0  0  0  0  0  0  0  0  0
   21.4180   -8.3920   -0.8900 H   0  0  0  0  0  0  0  0  0  0  0  0
   23.4790   -9.6060   -0.8900 H   0  0  0  0  0  0  0  0  0  0  0  0
   23.6800   -8.0660    0.0000 H   0  0  0  0  0  0  0  0  0  0  0  0
   23.4790   -9.6060    0.8900 H   0  0  0  0  0  0  0  0  0  0  0  0
   16.3760  -13.4880    0.0000 H   0  0  0  0  0  0  0  0  0  0  0  0
  1  2  1  0  0  0  0
  1 12  1  0  0  0  0
  1 13  1  0  0  0  0
  1 14  1  0  0  0  0
  2  3  1  0  0  0  0
  2 11  2  0  0  0  0
  3  4  2  0  0  0  0
  4  5  1  0  0  0  0
  5  6  1  0  0  0  0
  5 11  1  0  0  0  0
  6  7  1  0  0  0  0
  6 15  1  0  0  0  0
  6 16  1  0  0  0  0
  7  8  1  0  0  0  0
  7 17  1  0  0  0  0
  7 18  1  0  0  0  0
  8  9  1  0  0  0  0
  9 10  1  0  0  0  0
  9 19  1  0  0  0  0
  9 20  1  0  0  0  0
 10 21  1  0  0  0  0
 10 22  1  0  0  0  0
 10 23  1  0  0  0  0
 11 24  1  0  0  0  0
M  END
