5lli_2.pdb
  MOE2019           3D

 31 30  0  0  0  0  0  0  0  0999 V2000
   -2.7110    6.7610    0.0000 O   0  0  0  0  0  0  0  0  0  0  0  0
   -3.4270    7.4000    0.0000 H   0  0  0  0  0  0  0  0  0  0  0  0
   -1.4200    7.5260    0.0000 C   0  0  0  0  0  0  0  0  0  0  0  0
   -0.1130    6.7910    0.0000 C   0  0  0  0  0  0  0  0  0  0  0  0
    1.1780    7.5550    0.0000 O   0  0  0  0  0  0  0  0  0  0  0  0
    2.4850    6.8200    0.0000 C   0  0  0  0  0  0  0  0  0  0  0  0
    3.7760    7.5850    0.0000 C   0  0  0  0  0  0  0  0  0  0  0  0
    5.0830    6.8490    0.0000 O   0  0  0  0  0  0  0  0  0  0  0  0
    6.3740    7.6140    0.0000 C   0  0  0  0  0  0  0  0  0  0  0  0
    7.6810    6.8790    0.0000 C   0  0  0  0  0  0  0  0  0  0  0  0
    8.9710    7.6430    0.0000 O   0  0  0  0  0  0  0  0  0  0  0  0
   10.2790    6.9080    0.0000 C   0  0  0  0  0  0  0  0  0  0  0  0
   11.5690    7.6730    0.0000 C   0  0  0  0  0  0  0  0  0  0  0  0
   12.8770    6.9370    0.0000 O   0  0  0  0  0  0  0  0  0  0  0  0
   13.5790    7.5920    0.0000 H   0  0  0  0  0  0  0  0  0  0  0  0
   -1.4270    8.1550   -0.8900 H   0  0  0  0  0  0  0  0  0  0  0  0
   -1.4270    8.1550    0.8900 H   0  0  0  0  0  0  0  0  0  0  0  0
   -0.1060    6.1620   -0.8900 H   0  0  0  0  0  0  0  0  0  0  0  0
   -0.1060    6.1620    0.8900 H   0  0  0  0  0  0  0  0  0  0  0  0
    2.4920    6.1910    0.8900 H   0  0  0  0  0  0  0  0  0  0  0  0
    2.4920    6.1910   -0.8900 H   0  0  0  0  0  0  0  0  0  0  0  0
    3.7690    8.2140    0.8900 H   0  0  0  0  0  0  0  0  0  0  0  0
    3.7690    8.2140   -0.8900 H   0  0  0  0  0  0  0  0  0  0  0  0
    6.3670    8.2430   -0.8900 H   0  0  0  0  0  0  0  0  0  0  0  0
    6.3670    8.2430    0.8900 H   0  0  0  0  0  0  0  0  0  0  0  0
    7.6880    6.2500   -0.8900 H   0  0  0  0  0  0  0  0  0  0  0  0
    7.6880    6.2500    0.8900 H   0  0  0  0  0  0  0  0  0  0  0  0
   10.2860    6.2790    0.8900 H   0  0  0  0  0  0  0  0  0  0  0  0
   10.2860    6.2790   -0.8900 H   0  0  0  0  0  0  0  0  0  0  0  0
   11.5620    8.3020    0.8900 H   0  0  0  0  0  0  0  0  0  0  0  0
   11.5620    8.3020   -0.8900 H   0  0  0  0  0  0  0  0  0  0  0  0
  1  2  1  0  0  0  0
  1  3  1  0  0  0  0
  3  4  1  0  0  0  0
  3 16  1  0  0  0  0
  3 17  1  0  0  0  0
  4  5  1  0  0  0  0
  4 18  1  0  0  0  0
  4 19  1  0  0  0  0
  5  6  1  0  0  0  0
  6  7  1  0  0  0  0
  6 20  1  0  0  0  0
  6 21  1  0  0  0  0
  7  8  1  0  0  0  0
  7 22  1  0  0  0  0
  7 23  1  0  0  0  0
  8  9  1  0  0  0  0
  9 10  1  0  0  0  0
  9 24  1  0  0  0  0
  9 25  1  0  0  0  0
 10 11  1  0  0  0  0
 10 26  1  0  0  0  0
 10 27  1  0  0  0  0
 11 12  1  0  0  0  0
 12 13  1  0  0  0  0
 12 28  1  0  0  0  0
 12 29  1  0  0  0  0
 13 14  1  0  0  0  0
 13 30  1  0  0  0  0
 13 31  1  0  0  0  0
 14 15  1  0  0  0  0
M  END
