5lli_4.pdb
  MOE2019           3D

 36 35  0  0  0  0  0  0  0  0999 V2000
    3.9620   14.2550    0.0000 C   0  0  0  0  0  0  0  0  0  0  0  0
    3.1990   15.5470    0.0000 C   0  0  0  0  0  0  0  0  0  0  0  0
    1.6990   15.5310    0.0000 O   0  0  0  0  0  0  0  0  0  0  0  0
    0.9360   16.8230    0.0000 C   0  0  0  0  0  0  0  0  0  0  0  0
   -0.5640   16.8080    0.0000 C   0  0  0  0  0  0  0  0  0  0  0  0
   -1.3270   18.0990    0.0000 O   0  0  0  0  0  0  0  0  0  0  0  0
   -2.8270   18.0840    0.0000 C   0  0  0  0  0  0  0  0  0  0  0  0
   -3.5900   19.3750    0.0000 C   0  0  0  0  0  0  0  0  0  0  0  0
   -5.0900   19.3600    0.0000 O   0  0  0  0  0  0  0  0  0  0  0  0
   -5.8530   20.6520    0.0000 C   0  0  0  0  0  0  0  0  0  0  0  0
   -7.3530   20.6360    0.0000 C   0  0  0  0  0  0  0  0  0  0  0  0
   -8.1160   21.9280    0.0000 O   0  0  0  0  0  0  0  0  0  0  0  0
   -9.6160   21.9130    0.0000 C   0  0  0  0  0  0  0  0  0  0  0  0
  -10.3790   23.2040    0.0000 C   0  0  0  0  0  0  0  0  0  0  0  0
    3.6530   13.7070   -0.8900 H   0  0  0  0  0  0  0  0  0  0  0  0
    3.6530   13.7070    0.8900 H   0  0  0  0  0  0  0  0  0  0  0  0
    5.0420   14.4000    0.0000 H   0  0  0  0  0  0  0  0  0  0  0  0
    3.5080   16.0950   -0.8900 H   0  0  0  0  0  0  0  0  0  0  0  0
    3.5080   16.0950    0.8900 H   0  0  0  0  0  0  0  0  0  0  0  0
    1.2450   17.3710    0.8900 H   0  0  0  0  0  0  0  0  0  0  0  0
    1.2450   17.3710   -0.8900 H   0  0  0  0  0  0  0  0  0  0  0  0
   -0.8730   16.2600    0.8900 H   0  0  0  0  0  0  0  0  0  0  0  0
   -0.8730   16.2600   -0.8900 H   0  0  0  0  0  0  0  0  0  0  0  0
   -3.1360   17.5360   -0.8900 H   0  0  0  0  0  0  0  0  0  0  0  0
   -3.1360   17.5360    0.8900 H   0  0  0  0  0  0  0  0  0  0  0  0
   -3.2810   19.9230   -0.8900 H   0  0  0  0  0  0  0  0  0  0  0  0
   -3.2810   19.9230    0.8900 H   0  0  0  0  0  0  0  0  0  0  0  0
   -5.5440   21.2000    0.8900 H   0  0  0  0  0  0  0  0  0  0  0  0
   -5.5440   21.2000   -0.8900 H   0  0  0  0  0  0  0  0  0  0  0  0
   -7.6620   20.0880    0.8900 H   0  0  0  0  0  0  0  0  0  0  0  0
   -7.6620   20.0880   -0.8900 H   0  0  0  0  0  0  0  0  0  0  0  0
   -9.9250   21.3650   -0.8900 H   0  0  0  0  0  0  0  0  0  0  0  0
   -9.9250   21.3650    0.8900 H   0  0  0  0  0  0  0  0  0  0  0  0
  -10.0700   23.7520   -0.8900 H   0  0  0  0  0  0  0  0  0  0  0  0
  -10.0700   23.7520    0.8900 H   0  0  0  0  0  0  0  0  0  0  0  0
  -11.4590   23.0590    0.0000 H   0  0  0  0  0  0  0  0  0  0  0  0
  1  2  1  0  0  0  0
  1 15  1  0  0  0  0
  1 16  1  0  0  0  0
  1 17  1  0  0  0  0
  2  3  1  0  0  0  0
  2 18  1  0  0  0  0
  2 19  1  0  0  0  0
  3  4  1  0  0  0  0
  4  5  1  0  0  0  0
  4 20  1  0  0  0  0
  4 21  1  0  0  0  0
  5  6  1  0  0  0  0
  5 22  1  0  0  0  0
  5 23  1  0  0  0  0
  6  7  1  0  0  0  0
  7  8  1  0  0  0  0
  7 24  1  0  0  0  0
  7 25  1  0  0  0  0
  8  9  1  0  0  0  0
  8 26  1  0  0  0  0
  8 27  1  0  0  0  0
  9 10  1  0  0  0  0
 10 11  1  0  0  0  0
 10 28  1  0  0  0  0
 10 29  1  0  0  0  0
 11 12  1  0  0  0  0
 11 30  1  0  0  0  0
 11 31  1  0  0  0  0
 12 13  1  0  0  0  0
 13 14  1  0  0  0  0
 13 32  1  0  0  0  0
 13 33  1  0  0  0  0
 14 34  1  0  0  0  0
 14 35  1  0  0  0  0
 14 36  1  0  0  0  0
M  END
