5lli_12.pdb
  MOE2019           3D

 51 50  0  0  0  0  0  0  0  0999 V2000
  -16.7290    4.5240    0.0000 S   0  0  0  0  0  0  0  0  0  0  0  0
  -17.7410    5.3970    0.0000 H   0  0  0  0  0  0  0  0  0  0  0  0
  -15.4270    5.2680    0.0000 C   0  0  0  0  0  0  0  0  0  0  0  0
  -14.1310    4.5120    0.0000 C   0  0  0  0  0  0  0  0  0  0  0  0
  -12.8280    5.2560    0.0000 O   0  0  0  0  0  0  0  0  0  0  0  0
  -11.5330    4.5000    0.0000 C   0  0  0  0  0  0  0  0  0  0  0  0
  -10.2300    5.2440    0.0000 C   0  0  0  0  0  0  0  0  0  0  0  0
   -8.9350    4.4880    0.0000 O   0  0  0  0  0  0  0  0  0  0  0  0
   -7.6320    5.2320    0.0000 C   0  0  0  0  0  0  0  0  0  0  0  0
   -6.3370    4.4760    0.0000 C   0  0  0  0  0  0  0  0  0  0  0  0
   -5.0340    5.2200    0.0000 O   0  0  0  0  0  0  0  0  0  0  0  0
   -3.7390    4.4640    0.0000 C   0  0  0  0  0  0  0  0  0  0  0  0
   -2.4360    5.2080    0.0000 C   0  0  0  0  0  0  0  0  0  0  0  0
   -1.1410    4.4520    0.0000 O   0  0  0  0  0  0  0  0  0  0  0  0
    0.1620    5.1960    0.0000 C   0  0  0  0  0  0  0  0  0  0  0  0
    1.4570    4.4390    0.0000 C   0  0  0  0  0  0  0  0  0  0  0  0
    2.7600    5.1830    0.0000 O   0  0  0  0  0  0  0  0  0  0  0  0
    4.0550    4.4270    0.0000 C   0  0  0  0  0  0  0  0  0  0  0  0
    5.3580    5.1710    0.0000 C   0  0  0  0  0  0  0  0  0  0  0  0
    5.3650    6.6710    0.0000 O   0  0  0  0  0  0  0  0  0  0  0  0
    6.6530    4.4150    0.0000 N   0  0  0  0  0  0  0  0  0  0  0  0
    7.9560    5.1590    0.0000 C   0  0  0  0  0  0  0  0  0  0  0  0
    9.2510    4.4030    0.0000 C   0  0  0  0  0  0  0  0  0  0  0  0
  -15.4240    5.8970   -0.8900 H   0  0  0  0  0  0  0  0  0  0  0  0
  -15.4240    5.8970    0.8900 H   0  0  0  0  0  0  0  0  0  0  0  0
  -14.1340    3.8830   -0.8900 H   0  0  0  0  0  0  0  0  0  0  0  0
  -14.1340    3.8830    0.8900 H   0  0  0  0  0  0  0  0  0  0  0  0
  -11.5360    3.8710    0.8900 H   0  0  0  0  0  0  0  0  0  0  0  0
  -11.5360    3.8710   -0.8900 H   0  0  0  0  0  0  0  0  0  0  0  0
  -10.2270    5.8730    0.8900 H   0  0  0  0  0  0  0  0  0  0  0  0
  -10.2270    5.8730   -0.8900 H   0  0  0  0  0  0  0  0  0  0  0  0
   -7.6290    5.8610   -0.8900 H   0  0  0  0  0  0  0  0  0  0  0  0
   -7.6290    5.8610    0.8900 H   0  0  0  0  0  0  0  0  0  0  0  0
   -6.3400    3.8470   -0.8900 H   0  0  0  0  0  0  0  0  0  0  0  0
   -6.3400    3.8470    0.8900 H   0  0  0  0  0  0  0  0  0  0  0  0
   -3.7420    3.8350    0.8900 H   0  0  0  0  0  0  0  0  0  0  0  0
   -3.7420    3.8350   -0.8900 H   0  0  0  0  0  0  0  0  0  0  0  0
   -2.4330    5.8370    0.8900 H   0  0  0  0  0  0  0  0  0  0  0  0
   -2.4330    5.8370   -0.8900 H   0  0  0  0  0  0  0  0  0  0  0  0
    0.1650    5.8250   -0.8900 H   0  0  0  0  0  0  0  0  0  0  0  0
    0.1650    5.8250    0.8900 H   0  0  0  0  0  0  0  0  0  0  0  0
    1.4540    3.8100   -0.8900 H   0  0  0  0  0  0  0  0  0  0  0  0
    1.4540    3.8100    0.8900 H   0  0  0  0  0  0  0  0  0  0  0  0
    4.0520    3.7980    0.8900 H   0  0  0  0  0  0  0  0  0  0  0  0
    4.0520    3.7980   -0.8900 H   0  0  0  0  0  0  0  0  0  0  0  0
    6.6480    3.4050    0.0000 H   0  0  0  0  0  0  0  0  0  0  0  0
    7.9590    5.7880   -0.8900 H   0  0  0  0  0  0  0  0  0  0  0  0
    7.9590    5.7880    0.8900 H   0  0  0  0  0  0  0  0  0  0  0  0
    9.2480    3.7740   -0.8900 H   0  0  0  0  0  0  0  0  0  0  0  0
    9.2480    3.7740    0.8900 H   0  0  0  0  0  0  0  0  0  0  0  0
   10.1240    5.0560    0.0000 H   0  0  0  0  0  0  0  0  0  0  0  0
  1  2  1  0  0  0  0
  1  3  1  0  0  0  0
  3  4  1  0  0  0  0
  3 24  1  0  0  0  0
  3 25  1  0  0  0  0
  4  5  1  0  0  0  0
  4 26  1  0  0  0  0
  4 27  1  0  0  0  0
  5  6  1  0  0  0  0
  6  7  1  0  0  0  0
  6 28  1  0  0  0  0
  6 29  1  0  0  0  0
  7  8  1  0  0  0  0
  7 30  1  0  0  0  0
  7 31  1  0  0  0  0
  8  9  1  0  0  0  0
  9 10  1  0  0  0  0
  9 32  1  0  0  0  0
  9 33  1  0  0  0  0
 10 11  1  0  0  0  0
 10 34  1  0  0  0  0
 10 35  1  0  0  0  0
 11 12  1  0  0  0  0
 12 13  1  0  0  0  0
 12 36  1  0  0  0  0
 12 37  1  0  0  0  0
 13 14  1  0  0  0  0
 13 38  1  0  0  0  0
 13 39  1  0  0  0  0
 14 15  1  0  0  0  0
 15 16  1  0  0  0  0
 15 40  1  0  0  0  0
 15 41  1  0  0  0  0
 16 17  1  0  0  0  0
 16 42  1  0  0  0  0
 16 43  1  0  0  0  0
 17 18  1  0  0  0  0
 18 19  1  0  0  0  0
 18 44  1  0  0  0  0
 18 45  1  0  0  0  0
 19 20  2  0  0  0  0
 19 21  1  0  0  0  0
 21 22  1  0  0  0  0
 21 46  1  0  0  0  0
 22 23  1  0  0  0  0
 22 47  1  0  0  0  0
 22 48  1  0  0  0  0
 23 49  1  0  0  0  0
 23 50  1  0  0  0  0
 23 51  1  0  0  0  0
M  END
