5mo4_2.pdb
  MOE2019           3D

 27 27  0  0  0  0  0  0  0  0999 V2000
  -15.3170  -11.4670    0.0000 C   0  0  0  0  0  0  0  0  0  0  0  0
  -14.0250  -10.7060    0.0000 C   0  0  0  0  0  0  0  0  0  0  0  0
  -12.7190  -11.4440    0.0000 C   0  0  0  0  0  0  0  0  0  0  0  0
  -12.5490  -12.9350    0.0000 N   0  0  0  0  0  0  0  0  0  0  0  0
  -11.0800  -13.2340    0.0000 N   0  0  0  0  0  0  0  0  0  0  0  0
  -10.3410  -11.9290    0.0000 N   0  0  0  0  0  0  0  0  0  0  0  0
   -8.8500  -11.7590    0.0000 C   0  0  0  0  0  0  0  0  0  0  0  0
   -8.2520  -10.3830    0.0000 C   0  0  0  0  0  0  0  0  0  0  0  0
   -6.7620  -10.2140    0.0000 O   0  0  0  0  0  0  0  0  0  0  0  0
   -6.1640   -8.8380    0.0000 C   0  0  0  0  0  0  0  0  0  0  0  0
   -4.6730   -8.6680    0.0000 C   0  0  0  0  0  0  0  0  0  0  0  0
  -11.3540  -10.8230    0.0000 C   0  0  0  0  0  0  0  0  0  0  0  0
  -15.3120  -12.0960    0.8900 H   0  0  0  0  0  0  0  0  0  0  0  0
  -15.3120  -12.0960   -0.8900 H   0  0  0  0  0  0  0  0  0  0  0  0
  -16.1920  -10.8170    0.0000 H   0  0  0  0  0  0  0  0  0  0  0  0
  -14.0310  -10.0770    0.8900 H   0  0  0  0  0  0  0  0  0  0  0  0
  -14.0310  -10.0770   -0.8900 H   0  0  0  0  0  0  0  0  0  0  0  0
   -8.4760  -12.2650    0.8900 H   0  0  0  0  0  0  0  0  0  0  0  0
   -8.4760  -12.2650   -0.8900 H   0  0  0  0  0  0  0  0  0  0  0  0
   -8.6260   -9.8770    0.8900 H   0  0  0  0  0  0  0  0  0  0  0  0
   -8.6260   -9.8770   -0.8900 H   0  0  0  0  0  0  0  0  0  0  0  0
   -6.5380   -8.3320   -0.8900 H   0  0  0  0  0  0  0  0  0  0  0  0
   -6.5380   -8.3320    0.8900 H   0  0  0  0  0  0  0  0  0  0  0  0
   -4.2990   -9.1740   -0.8900 H   0  0  0  0  0  0  0  0  0  0  0  0
   -4.2990   -9.1740    0.8900 H   0  0  0  0  0  0  0  0  0  0  0  0
   -4.3650   -7.6230    0.0000 H   0  0  0  0  0  0  0  0  0  0  0  0
  -11.1380   -9.7650    0.0000 H   0  0  0  0  0  0  0  0  0  0  0  0
  1  2  1  0  0  0  0
  1 13  1  0  0  0  0
  1 14  1  0  0  0  0
  1 15  1  0  0  0  0
  2  3  1  0  0  0  0
  2 16  1  0  0  0  0
  2 17  1  0  0  0  0
  3  4  1  0  0  0  0
  3 12  2  0  0  0  0
  4  5  2  0  0  0  0
  5  6  1  0  0  0  0
  6  7  1  0  0  0  0
  6 12  1  0  0  0  0
  7  8  1  0  0  0  0
  7 18  1  0  0  0  0
  7 19  1  0  0  0  0
  8  9  1  0  0  0  0
  8 20  1  0  0  0  0
  8 21  1  0  0  0  0
  9 10  1  0  0  0  0
 10 11  1  0  0  0  0
 10 22  1  0  0  0  0
 10 23  1  0  0  0  0
 11 24  1  0  0  0  0
 11 25  1  0  0  0  0
 11 26  1  0  0  0  0
 12 27  1  0  0  0  0
M  END
