5p9j_14.pdb
  MOE2019           3D

 14 13  0  0  0  0  0  0  0  0999 V2000
    8.8280    3.1490    0.0000 C   0  0  0  0  0  0  0  0  0  0  0  0
    9.5750    1.8480    0.0000 C   0  0  0  0  0  0  0  0  0  0  0  0
   11.0750    1.8460    0.0000 C   0  0  0  0  0  0  0  0  0  0  0  0
   11.8230    0.5450    0.0000 C   0  0  0  0  0  0  0  0  0  0  0  0
    9.1440    3.6930   -0.8900 H   0  0  0  0  0  0  0  0  0  0  0  0
    9.1440    3.6930    0.8900 H   0  0  0  0  0  0  0  0  0  0  0  0
    7.7460    3.0170    0.0000 H   0  0  0  0  0  0  0  0  0  0  0  0
    9.2590    1.3040    0.8900 H   0  0  0  0  0  0  0  0  0  0  0  0
    9.2590    1.3040   -0.8900 H   0  0  0  0  0  0  0  0  0  0  0  0
   11.3910    2.3910    0.8900 H   0  0  0  0  0  0  0  0  0  0  0  0
   11.3910    2.3910   -0.8900 H   0  0  0  0  0  0  0  0  0  0  0  0
   11.5070    0.0010   -0.8900 H   0  0  0  0  0  0  0  0  0  0  0  0
   11.5070    0.0010    0.8900 H   0  0  0  0  0  0  0  0  0  0  0  0
   12.9050    0.6770    0.0000 H   0  0  0  0  0  0  0  0  0  0  0  0
  1  2  1  0  0  0  0
  1  5  1  0  0  0  0
  1  6  1  0  0  0  0
  1  7  1  0  0  0  0
  2  3  1  0  0  0  0
  2  8  1  0  0  0  0
  2  9  1  0  0  0  0
  3  4  1  0  0  0  0
  3 10  1  0  0  0  0
  3 11  1  0  0  0  0
  4 12  1  0  0  0  0
  4 13  1  0  0  0  0
  4 14  1  0  0  0  0
M  END
