5p9j_20.pdb
  MOE2019           3D

 48 48  0  0  0  0  0  0  0  0999 V2000
    7.1800    1.3030    0.0000 O   0  0  0  0  0  0  0  0  0  0  0  0
    6.9060    2.2230    0.0000 H   0  0  0  0  0  0  0  0  0  0  0  0
    8.6790    1.2770    0.0000 C   0  0  0  0  0  0  0  0  0  0  0  0
    9.4070   -0.0350    0.0000 C   0  0  0  0  0  0  0  0  0  0  0  0
   10.9060   -0.0620    0.0000 O   0  0  0  0  0  0  0  0  0  0  0  0
   11.6330   -1.3740    0.0000 C   0  0  0  0  0  0  0  0  0  0  0  0
   13.1330   -1.4000    0.0000 C   0  0  0  0  0  0  0  0  0  0  0  0
   13.9060   -0.1140    0.0000 O   0  0  0  0  0  0  0  0  0  0  0  0
   15.4060   -0.1400    0.0000 C   0  0  0  0  0  0  0  0  0  0  0  0
   16.1780    1.1450    0.0000 C   0  0  0  0  0  0  0  0  0  0  0  0
   17.6780    1.1190    0.0000 O   0  0  0  0  0  0  0  0  0  0  0  0
   18.4510    2.4050    0.0000 C   0  0  0  0  0  0  0  0  0  0  0  0
   19.9510    2.3780    0.0000 C   0  0  0  0  0  0  0  0  0  0  0  0
   20.7230    3.6640    0.0000 N   0  3  0  0  0  0  0  0  0  0  0  0
   22.2230    3.6380    0.0000 C   0  0  0  0  0  0  0  0  0  0  0  0
   22.9960    4.9230    0.0000 C   0  0  0  0  0  0  0  0  0  0  0  0
   22.2680    6.2350    0.0000 N   0  0  0  0  0  0  0  0  0  0  0  0
   23.0410    7.5210    0.0000 C   0  0  0  0  0  0  0  0  0  0  0  0
   20.7690    6.2620    0.0000 C   0  0  0  0  0  0  0  0  0  0  0  0
   19.9960    4.9760    0.0000 C   0  0  0  0  0  0  0  0  0  0  0  0
    9.0030    1.8170   -0.8900 H   0  0  0  0  0  0  0  0  0  0  0  0
    9.0030    1.8170    0.8900 H   0  0  0  0  0  0  0  0  0  0  0  0
    9.0830   -0.5740   -0.8900 H   0  0  0  0  0  0  0  0  0  0  0  0
    9.0830   -0.5740    0.8900 H   0  0  0  0  0  0  0  0  0  0  0  0
   11.3090   -1.9130    0.8900 H   0  0  0  0  0  0  0  0  0  0  0  0
   11.3090   -1.9130   -0.8900 H   0  0  0  0  0  0  0  0  0  0  0  0
   13.4380   -1.9500   -0.8900 H   0  0  0  0  0  0  0  0  0  0  0  0
   13.4380   -1.9500    0.8900 H   0  0  0  0  0  0  0  0  0  0  0  0
   15.7110   -0.6900    0.8900 H   0  0  0  0  0  0  0  0  0  0  0  0
   15.7110   -0.6900   -0.8900 H   0  0  0  0  0  0  0  0  0  0  0  0
   15.8730    1.6950    0.8900 H   0  0  0  0  0  0  0  0  0  0  0  0
   15.8730    1.6950   -0.8900 H   0  0  0  0  0  0  0  0  0  0  0  0
   18.1460    2.9560   -0.8900 H   0  0  0  0  0  0  0  0  0  0  0  0
   18.1460    2.9560    0.8900 H   0  0  0  0  0  0  0  0  0  0  0  0
   20.2560    1.8280   -0.8900 H   0  0  0  0  0  0  0  0  0  0  0  0
   20.2560    1.8280    0.8900 H   0  0  0  0  0  0  0  0  0  0  0  0
   20.7230    3.6640   -1.0100 H   0  0  0  0  0  0  0  0  0  0  0  0
   22.5280    3.0880    0.8900 H   0  0  0  0  0  0  0  0  0  0  0  0
   22.5280    3.0880   -0.8900 H   0  0  0  0  0  0  0  0  0  0  0  0
   23.6250    4.9120   -0.8900 H   0  0  0  0  0  0  0  0  0  0  0  0
   23.6250    4.9120    0.8900 H   0  0  0  0  0  0  0  0  0  0  0  0
   22.7360    8.0710   -0.8900 H   0  0  0  0  0  0  0  0  0  0  0  0
   22.7360    8.0710    0.8900 H   0  0  0  0  0  0  0  0  0  0  0  0
   24.1200    7.3680    0.0000 H   0  0  0  0  0  0  0  0  0  0  0  0
   20.4640    6.8130    0.8900 H   0  0  0  0  0  0  0  0  0  0  0  0
   20.4640    6.8130   -0.8900 H   0  0  0  0  0  0  0  0  0  0  0  0
   19.3670    4.9870   -0.8900 H   0  0  0  0  0  0  0  0  0  0  0  0
   19.3670    4.9870    0.8900 H   0  0  0  0  0  0  0  0  0  0  0  0
  1  2  1  0  0  0  0
  1  3  1  0  0  0  0
  3  4  1  0  0  0  0
  3 21  1  0  0  0  0
  3 22  1  0  0  0  0
  4  5  1  0  0  0  0
  4 23  1  0  0  0  0
  4 24  1  0  0  0  0
  5  6  1  0  0  0  0
  6  7  1  0  0  0  0
  6 25  1  0  0  0  0
  6 26  1  0  0  0  0
  7  8  1  0  0  0  0
  7 27  1  0  0  0  0
  7 28  1  0  0  0  0
  8  9  1  0  0  0  0
  9 10  1  0  0  0  0
  9 29  1  0  0  0  0
  9 30  1  0  0  0  0
 10 11  1  0  0  0  0
 10 31  1  0  0  0  0
 10 32  1  0  0  0  0
 11 12  1  0  0  0  0
 12 13  1  0  0  0  0
 12 33  1  0  0  0  0
 12 34  1  0  0  0  0
 13 14  1  0  0  0  0
 13 35  1  0  0  0  0
 13 36  1  0  0  0  0
 14 15  1  0  0  0  0
 14 20  1  0  0  0  0
 14 37  1  0  0  0  0
 15 16  1  0  0  0  0
 15 38  1  0  0  0  0
 15 39  1  0  0  0  0
 16 17  1  0  0  0  0
 16 40  1  0  0  0  0
 16 41  1  0  0  0  0
 17 18  1  0  0  0  0
 17 19  1  0  0  0  0
 18 42  1  0  0  0  0
 18 43  1  0  0  0  0
 18 44  1  0  0  0  0
 19 20  1  0  0  0  0
 19 45  1  0  0  0  0
 19 46  1  0  0  0  0
 20 47  1  0  0  0  0
 20 48  1  0  0  0  0
M  CHG  1  14   1
M  END
