5p9j_9.pdb
  MOE2019           3D

 36 35  0  0  0  0  0  0  0  0999 V2000
    2.2320    4.3620    0.0000 C   0  0  0  0  0  0  0  0  0  0  0  0
    2.3010    5.4500    0.0000 H   0  0  0  0  0  0  0  0  0  0  0  0
    1.6960    4.0320    0.8900 H   0  0  0  0  0  0  0  0  0  0  0  0
    1.6960    4.0320   -0.8900 H   0  0  0  0  0  0  0  0  0  0  0  0
    2.0160    1.9450    0.0000 N   0  0  0  0  0  0  0  0  0  0  0  0
    1.3290    2.6850    0.0000 H   0  0  0  0  0  0  0  0  0  0  0  0
    3.4790    2.2790    0.0000 N   0  0  0  0  0  0  0  0  0  0  0  0
    3.6120    3.7730    0.0000 N   0  0  0  0  0  0  0  0  0  0  0  0
    4.8990    4.5440    0.0000 C   0  0  0  0  0  0  0  0  0  0  0  0
    6.2100    3.8140    0.0000 C   0  0  0  0  0  0  0  0  0  0  0  0
    7.4970    4.5840    0.0000 O   0  0  0  0  0  0  0  0  0  0  0  0
    8.8070    3.8550    0.0000 C   0  0  0  0  0  0  0  0  0  0  0  0
   10.0950    4.6250    0.0000 C   0  0  0  0  0  0  0  0  0  0  0  0
   11.4050    3.8960    0.0000 O   0  0  0  0  0  0  0  0  0  0  0  0
   12.6920    4.6660    0.0000 C   0  0  0  0  0  0  0  0  0  0  0  0
   14.0030    3.9360    0.0000 C   0  0  0  0  0  0  0  0  0  0  0  0
   15.2900    4.7070    0.0000 O   0  0  0  0  0  0  0  0  0  0  0  0
   16.6010    3.9770    0.0000 C   0  0  0  0  0  0  0  0  0  0  0  0
   17.8880    4.7470    0.0000 C   0  0  0  0  0  0  0  0  0  0  0  0
    4.8890    5.1730   -0.8900 H   0  0  0  0  0  0  0  0  0  0  0  0
    4.8890    5.1730    0.8900 H   0  0  0  0  0  0  0  0  0  0  0  0
    6.2200    3.1850   -0.8900 H   0  0  0  0  0  0  0  0  0  0  0  0
    6.2200    3.1850    0.8900 H   0  0  0  0  0  0  0  0  0  0  0  0
    8.8170    3.2260    0.8900 H   0  0  0  0  0  0  0  0  0  0  0  0
    8.8170    3.2260   -0.8900 H   0  0  0  0  0  0  0  0  0  0  0  0
   10.0850    5.2540    0.8900 H   0  0  0  0  0  0  0  0  0  0  0  0
   10.0850    5.2540   -0.8900 H   0  0  0  0  0  0  0  0  0  0  0  0
   12.6820    5.2950   -0.8900 H   0  0  0  0  0  0  0  0  0  0  0  0
   12.6820    5.2950    0.8900 H   0  0  0  0  0  0  0  0  0  0  0  0
   14.0130    3.3070   -0.8900 H   0  0  0  0  0  0  0  0  0  0  0  0
   14.0130    3.3070    0.8900 H   0  0  0  0  0  0  0  0  0  0  0  0
   16.6110    3.3480    0.8900 H   0  0  0  0  0  0  0  0  0  0  0  0
   16.6110    3.3480   -0.8900 H   0  0  0  0  0  0  0  0  0  0  0  0
   17.8780    5.3760    0.8900 H   0  0  0  0  0  0  0  0  0  0  0  0
   17.8780    5.3760   -0.8900 H   0  0  0  0  0  0  0  0  0  0  0  0
   18.7680    4.1040    0.0000 H   0  0  0  0  0  0  0  0  0  0  0  0
  1  2  1  0  0  0  0
  1  3  1  0  0  0  0
  1  4  1  0  0  0  0
  1  8  1  0  0  0  0
  5  6  1  0  0  0  0
  5  7  2  0  0  0  0
  7  8  1  0  0  0  0
  8  9  1  0  0  0  0
  9 10  1  0  0  0  0
  9 20  1  0  0  0  0
  9 21  1  0  0  0  0
 10 11  1  0  0  0  0
 10 22  1  0  0  0  0
 10 23  1  0  0  0  0
 11 12  1  0  0  0  0
 12 13  1  0  0  0  0
 12 24  1  0  0  0  0
 12 25  1  0  0  0  0
 13 14  1  0  0  0  0
 13 26  1  0  0  0  0
 13 27  1  0  0  0  0
 14 15  1  0  0  0  0
 15 16  1  0  0  0  0
 15 28  1  0  0  0  0
 15 29  1  0  0  0  0
 16 17  1  0  0  0  0
 16 30  1  0  0  0  0
 16 31  1  0  0  0  0
 17 18  1  0  0  0  0
 18 19  1  0  0  0  0
 18 32  1  0  0  0  0
 18 33  1  0  0  0  0
 19 34  1  0  0  0  0
 19 35  1  0  0  0  0
 19 36  1  0  0  0  0
M  END
