5p9j_17.pdb
  MOE2019           3D

 38 37  0  0  0  0  0  0  0  0999 V2000
   -6.7540    1.4690    0.0000 C   0  0  0  0  0  0  0  0  0  0  0  0
   -5.4530    0.7210    0.0000 C   0  0  0  0  0  0  0  0  0  0  0  0
   -4.1550    1.4730    0.0000 C   0  0  0  0  0  0  0  0  0  0  0  0
   -2.8550    0.7250    0.0000 C   0  0  0  0  0  0  0  0  0  0  0  0
   -1.5570    1.4770    0.0000 C   0  0  0  0  0  0  0  0  0  0  0  0
   -0.2570    0.7290    0.0000 C   0  0  0  0  0  0  0  0  0  0  0  0
    1.0410    1.4810    0.0000 C   0  0  0  0  0  0  0  0  0  0  0  0
    2.3410    0.7330    0.0000 C   0  0  0  0  0  0  0  0  0  0  0  0
    3.6390    1.4850    0.0000 C   0  0  0  0  0  0  0  0  0  0  0  0
    4.9390    0.7370    0.0000 C   0  0  0  0  0  0  0  0  0  0  0  0
    6.2370    1.4890    0.0000 C   0  0  0  0  0  0  0  0  0  0  0  0
    7.5370    0.7410    0.0000 C   0  0  0  0  0  0  0  0  0  0  0  0
   -6.7550    2.0980   -0.8900 H   0  0  0  0  0  0  0  0  0  0  0  0
   -6.7550    2.0980    0.8900 H   0  0  0  0  0  0  0  0  0  0  0  0
   -7.6230    0.8100    0.0000 H   0  0  0  0  0  0  0  0  0  0  0  0
   -5.4520    0.0920    0.8900 H   0  0  0  0  0  0  0  0  0  0  0  0
   -5.4520    0.0920   -0.8900 H   0  0  0  0  0  0  0  0  0  0  0  0
   -4.1560    2.1020   -0.8900 H   0  0  0  0  0  0  0  0  0  0  0  0
   -4.1560    2.1020    0.8900 H   0  0  0  0  0  0  0  0  0  0  0  0
   -2.8540    0.0960    0.8900 H   0  0  0  0  0  0  0  0  0  0  0  0
   -2.8540    0.0960   -0.8900 H   0  0  0  0  0  0  0  0  0  0  0  0
   -1.5580    2.1060   -0.8900 H   0  0  0  0  0  0  0  0  0  0  0  0
   -1.5580    2.1060    0.8900 H   0  0  0  0  0  0  0  0  0  0  0  0
   -0.2560    0.1000    0.8900 H   0  0  0  0  0  0  0  0  0  0  0  0
   -0.2560    0.1000   -0.8900 H   0  0  0  0  0  0  0  0  0  0  0  0
    1.0400    2.1100    0.8900 H   0  0  0  0  0  0  0  0  0  0  0  0
    1.0400    2.1100   -0.8900 H   0  0  0  0  0  0  0  0  0  0  0  0
    2.3420    0.1040   -0.8900 H   0  0  0  0  0  0  0  0  0  0  0  0
    2.3420    0.1040    0.8900 H   0  0  0  0  0  0  0  0  0  0  0  0
    3.6380    2.1140    0.8900 H   0  0  0  0  0  0  0  0  0  0  0  0
    3.6380    2.1140   -0.8900 H   0  0  0  0  0  0  0  0  0  0  0  0
    4.9400    0.1080   -0.8900 H   0  0  0  0  0  0  0  0  0  0  0  0
    4.9400    0.1080    0.8900 H   0  0  0  0  0  0  0  0  0  0  0  0
    6.2360    2.1180    0.8900 H   0  0  0  0  0  0  0  0  0  0  0  0
    6.2360    2.1180   -0.8900 H   0  0  0  0  0  0  0  0  0  0  0  0
    7.5380    0.1120   -0.8900 H   0  0  0  0  0  0  0  0  0  0  0  0
    7.5380    0.1120    0.8900 H   0  0  0  0  0  0  0  0  0  0  0  0
    8.4060    1.3990    0.0000 H   0  0  0  0  0  0  0  0  0  0  0  0
  1  2  1  0  0  0  0
  1 13  1  0  0  0  0
  1 14  1  0  0  0  0
  1 15  1  0  0  0  0
  2  3  1  0  0  0  0
  2 16  1  0  0  0  0
  2 17  1  0  0  0  0
  3  4  1  0  0  0  0
  3 18  1  0  0  0  0
  3 19  1  0  0  0  0
  4  5  1  0  0  0  0
  4 20  1  0  0  0  0
  4 21  1  0  0  0  0
  5  6  1  0  0  0  0
  5 22  1  0  0  0  0
  5 23  1  0  0  0  0
  6  7  1  0  0  0  0
  6 24  1  0  0  0  0
  6 25  1  0  0  0  0
  7  8  1  0  0  0  0
  7 26  1  0  0  0  0
  7 27  1  0  0  0  0
  8  9  1  0  0  0  0
  8 28  1  0  0  0  0
  8 29  1  0  0  0  0
  9 10  1  0  0  0  0
  9 30  1  0  0  0  0
  9 31  1  0  0  0  0
 10 11  1  0  0  0  0
 10 32  1  0  0  0  0
 10 33  1  0  0  0  0
 11 12  1  0  0  0  0
 11 34  1  0  0  0  0
 11 35  1  0  0  0  0
 12 36  1  0  0  0  0
 12 37  1  0  0  0  0
 12 38  1  0  0  0  0
M  END
