5p9j_7.pdb
  MOE2019           3D

 23 22  0  0  0  0  0  0  0  0999 V2000
    7.0760    6.8500    0.0000 O   0  0  0  0  0  0  0  0  0  0  0  0
    7.0280    5.3500    0.0000 C   0  0  0  0  0  0  0  0  0  0  0  0
    8.3020    4.5590    0.0000 N   0  0  0  0  0  0  0  0  0  0  0  0
    5.7050    4.6430    0.0000 C   0  0  0  0  0  0  0  0  0  0  0  0
    4.4310    5.4350    0.0000 O   0  0  0  0  0  0  0  0  0  0  0  0
    3.1080    4.7280    0.0000 C   0  0  0  0  0  0  0  0  0  0  0  0
    1.8340    5.5200    0.0000 C   0  0  0  0  0  0  0  0  0  0  0  0
    0.5110    4.8120    0.0000 O   0  0  0  0  0  0  0  0  0  0  0  0
   -0.7620    5.6040    0.0000 C   0  0  0  0  0  0  0  0  0  0  0  0
   -2.0850    4.8970    0.0000 C   0  0  0  0  0  0  0  0  0  0  0  0
    8.2690    3.5500    0.0000 H   0  0  0  0  0  0  0  0  0  0  0  0
    9.1930    5.0350    0.0000 H   0  0  0  0  0  0  0  0  0  0  0  0
    5.6840    4.0140    0.8900 H   0  0  0  0  0  0  0  0  0  0  0  0
    5.6840    4.0140   -0.8900 H   0  0  0  0  0  0  0  0  0  0  0  0
    3.0870    4.0990    0.8900 H   0  0  0  0  0  0  0  0  0  0  0  0
    3.0870    4.0990   -0.8900 H   0  0  0  0  0  0  0  0  0  0  0  0
    1.8540    6.1490   -0.8900 H   0  0  0  0  0  0  0  0  0  0  0  0
    1.8540    6.1490    0.8900 H   0  0  0  0  0  0  0  0  0  0  0  0
   -0.7410    6.2330   -0.8900 H   0  0  0  0  0  0  0  0  0  0  0  0
   -0.7410    6.2330    0.8900 H   0  0  0  0  0  0  0  0  0  0  0  0
   -2.1060    4.2680    0.8900 H   0  0  0  0  0  0  0  0  0  0  0  0
   -2.1060    4.2680   -0.8900 H   0  0  0  0  0  0  0  0  0  0  0  0
   -2.9320    5.5830    0.0000 H   0  0  0  0  0  0  0  0  0  0  0  0
  1  2  2  0  0  0  0
  2  3  1  0  0  0  0
  2  4  1  0  0  0  0
  3 11  1  0  0  0  0
  3 12  1  0  0  0  0
  4  5  1  0  0  0  0
  4 13  1  0  0  0  0
  4 14  1  0  0  0  0
  5  6  1  0  0  0  0
  6  7  1  0  0  0  0
  6 15  1  0  0  0  0
  6 16  1  0  0  0  0
  7  8  1  0  0  0  0
  7 17  1  0  0  0  0
  7 18  1  0  0  0  0
  8  9  1  0  0  0  0
  9 10  1  0  0  0  0
  9 19  1  0  0  0  0
  9 20  1  0  0  0  0
 10 21  1  0  0  0  0
 10 22  1  0  0  0  0
 10 23  1  0  0  0  0
M  END
