5p9j_11.pdb
  MOE2019           3D

 23 22  0  0  0  0  0  0  0  0999 V2000
   12.8970    5.1720    0.0000 O   0  0  0  0  0  0  0  0  0  0  0  0
   13.6070    5.8180    0.0000 H   0  0  0  0  0  0  0  0  0  0  0  0
   11.5990    5.9240    0.0000 C   0  0  0  0  0  0  0  0  0  0  0  0
   10.2990    5.1760    0.0000 C   0  0  0  0  0  0  0  0  0  0  0  0
    9.0010    5.9280    0.0000 O   0  0  0  0  0  0  0  0  0  0  0  0
    7.7010    5.1800    0.0000 C   0  0  0  0  0  0  0  0  0  0  0  0
    6.4030    5.9320    0.0000 C   0  0  0  0  0  0  0  0  0  0  0  0
    5.1030    5.1840    0.0000 O   0  0  0  0  0  0  0  0  0  0  0  0
    3.8050    5.9360    0.0000 C   0  0  0  0  0  0  0  0  0  0  0  0
    3.8070    7.4360    0.0000 C   0  0  0  0  0  0  0  0  0  0  0  0
   11.6000    6.5530    0.8900 H   0  0  0  0  0  0  0  0  0  0  0  0
   11.6000    6.5530   -0.8900 H   0  0  0  0  0  0  0  0  0  0  0  0
   10.2980    4.5470    0.8900 H   0  0  0  0  0  0  0  0  0  0  0  0
   10.2980    4.5470   -0.8900 H   0  0  0  0  0  0  0  0  0  0  0  0
    7.7000    4.5510   -0.8900 H   0  0  0  0  0  0  0  0  0  0  0  0
    7.7000    4.5510    0.8900 H   0  0  0  0  0  0  0  0  0  0  0  0
    6.4040    6.5610   -0.8900 H   0  0  0  0  0  0  0  0  0  0  0  0
    6.4040    6.5610    0.8900 H   0  0  0  0  0  0  0  0  0  0  0  0
    3.2600    5.6220   -0.8900 H   0  0  0  0  0  0  0  0  0  0  0  0
    3.2600    5.6220    0.8900 H   0  0  0  0  0  0  0  0  0  0  0  0
    4.3530    7.7500   -0.8900 H   0  0  0  0  0  0  0  0  0  0  0  0
    4.3530    7.7500    0.8900 H   0  0  0  0  0  0  0  0  0  0  0  0
    2.8030    7.8610    0.0000 H   0  0  0  0  0  0  0  0  0  0  0  0
  1  2  1  0  0  0  0
  1  3  1  0  0  0  0
  3  4  1  0  0  0  0
  3 11  1  0  0  0  0
  3 12  1  0  0  0  0
  4  5  1  0  0  0  0
  4 13  1  0  0  0  0
  4 14  1  0  0  0  0
  5  6  1  0  0  0  0
  6  7  1  0  0  0  0
  6 15  1  0  0  0  0
  6 16  1  0  0  0  0
  7  8  1  0  0  0  0
  7 17  1  0  0  0  0
  7 18  1  0  0  0  0
  8  9  1  0  0  0  0
  9 10  1  0  0  0  0
  9 19  1  0  0  0  0
  9 20  1  0  0  0  0
 10 21  1  0  0  0  0
 10 22  1  0  0  0  0
 10 23  1  0  0  0  0
M  END
