5p9j_13.pdb
  MOE2019           3D

 37 36  0  0  0  0  0  0  0  0999 V2000
   16.3920  -11.8800    0.0000 O   0  0  0  0  0  0  0  0  0  0  0  0
   17.1000  -12.5280    0.0000 H   0  0  0  0  0  0  0  0  0  0  0  0
   15.0920  -12.6290    0.0000 C   0  0  0  0  0  0  0  0  0  0  0  0
   13.7940  -11.8770    0.0000 C   0  0  0  0  0  0  0  0  0  0  0  0
   12.4930  -12.6250    0.0000 O   0  0  0  0  0  0  0  0  0  0  0  0
   11.1960  -11.8730    0.0000 C   0  0  0  0  0  0  0  0  0  0  0  0
    9.8950  -12.6210    0.0000 C   0  0  0  0  0  0  0  0  0  0  0  0
    8.5970  -11.8700    0.0000 O   0  0  0  0  0  0  0  0  0  0  0  0
    7.2970  -12.6180    0.0000 C   0  0  0  0  0  0  0  0  0  0  0  0
    5.9990  -11.8660    0.0000 C   0  0  0  0  0  0  0  0  0  0  0  0
    4.6990  -12.6140    0.0000 O   0  0  0  0  0  0  0  0  0  0  0  0
    3.4010  -11.8620    0.0000 C   0  0  0  0  0  0  0  0  0  0  0  0
    2.1010  -12.6110    0.0000 C   0  0  0  0  0  0  0  0  0  0  0  0
    0.8030  -11.8590    0.0000 O   0  0  0  0  0  0  0  0  0  0  0  0
   -0.4970  -12.6070    0.0000 C   0  0  0  0  0  0  0  0  0  0  0  0
   -1.7950  -11.8550    0.0000 C   0  0  0  0  0  0  0  0  0  0  0  0
   15.0910  -13.2580   -0.8900 H   0  0  0  0  0  0  0  0  0  0  0  0
   15.0910  -13.2580    0.8900 H   0  0  0  0  0  0  0  0  0  0  0  0
   13.7950  -11.2480   -0.8900 H   0  0  0  0  0  0  0  0  0  0  0  0
   13.7950  -11.2480    0.8900 H   0  0  0  0  0  0  0  0  0  0  0  0
   11.1970  -11.2440    0.8900 H   0  0  0  0  0  0  0  0  0  0  0  0
   11.1970  -11.2440   -0.8900 H   0  0  0  0  0  0  0  0  0  0  0  0
    9.8940  -13.2500    0.8900 H   0  0  0  0  0  0  0  0  0  0  0  0
    9.8940  -13.2500   -0.8900 H   0  0  0  0  0  0  0  0  0  0  0  0
    7.2960  -13.2470   -0.8900 H   0  0  0  0  0  0  0  0  0  0  0  0
    7.2960  -13.2470    0.8900 H   0  0  0  0  0  0  0  0  0  0  0  0
    6.0000  -11.2370   -0.8900 H   0  0  0  0  0  0  0  0  0  0  0  0
    6.0000  -11.2370    0.8900 H   0  0  0  0  0  0  0  0  0  0  0  0
    3.4020  -11.2330    0.8900 H   0  0  0  0  0  0  0  0  0  0  0  0
    3.4020  -11.2330   -0.8900 H   0  0  0  0  0  0  0  0  0  0  0  0
    2.1000  -13.2400    0.8900 H   0  0  0  0  0  0  0  0  0  0  0  0
    2.1000  -13.2400   -0.8900 H   0  0  0  0  0  0  0  0  0  0  0  0
   -0.4980  -13.2360   -0.8900 H   0  0  0  0  0  0  0  0  0  0  0  0
   -0.4980  -13.2360    0.8900 H   0  0  0  0  0  0  0  0  0  0  0  0
   -1.7940  -11.2260   -0.8900 H   0  0  0  0  0  0  0  0  0  0  0  0
   -1.7940  -11.2260    0.8900 H   0  0  0  0  0  0  0  0  0  0  0  0
   -2.6660  -12.5110    0.0000 H   0  0  0  0  0  0  0  0  0  0  0  0
  1  2  1  0  0  0  0
  1  3  1  0  0  0  0
  3  4  1  0  0  0  0
  3 17  1  0  0  0  0
  3 18  1  0  0  0  0
  4  5  1  0  0  0  0
  4 19  1  0  0  0  0
  4 20  1  0  0  0  0
  5  6  1  0  0  0  0
  6  7  1  0  0  0  0
  6 21  1  0  0  0  0
  6 22  1  0  0  0  0
  7  8  1  0  0  0  0
  7 23  1  0  0  0  0
  7 24  1  0  0  0  0
  8  9  1  0  0  0  0
  9 10  1  0  0  0  0
  9 25  1  0  0  0  0
  9 26  1  0  0  0  0
 10 11  1  0  0  0  0
 10 27  1  0  0  0  0
 10 28  1  0  0  0  0
 11 12  1  0  0  0  0
 12 13  1  0  0  0  0
 12 29  1  0  0  0  0
 12 30  1  0  0  0  0
 13 14  1  0  0  0  0
 13 31  1  0  0  0  0
 13 32  1  0  0  0  0
 14 15  1  0  0  0  0
 15 16  1  0  0  0  0
 15 33  1  0  0  0  0
 15 34  1  0  0  0  0
 16 35  1  0  0  0  0
 16 36  1  0  0  0  0
 16 37  1  0  0  0  0
M  END
