5p9j_3.pdb
  MOE2019           3D

 35 34  0  0  0  0  0  0  0  0999 V2000
    9.7720   -9.5980    0.0000 O   0  0  0  0  0  0  0  0  0  0  0  0
    9.7330  -11.0970    0.0000 C   0  0  0  0  0  0  0  0  0  0  0  0
   11.0120  -11.8810    0.0000 N   0  0  0  0  0  0  0  0  0  0  0  0
    8.4150  -11.8130    0.0000 C   0  0  0  0  0  0  0  0  0  0  0  0
    7.1360  -11.0290    0.0000 O   0  0  0  0  0  0  0  0  0  0  0  0
    5.8180  -11.7450    0.0000 C   0  0  0  0  0  0  0  0  0  0  0  0
    4.5390  -10.9610    0.0000 C   0  0  0  0  0  0  0  0  0  0  0  0
    3.2200  -11.6770    0.0000 C   0  0  0  0  0  0  0  0  0  0  0  0
    1.9420  -10.8930    0.0000 C   0  0  0  0  0  0  0  0  0  0  0  0
    0.6230  -11.6090    0.0000 O   0  0  0  0  0  0  0  0  0  0  0  0
   -0.6560  -10.8250    0.0000 C   0  0  0  0  0  0  0  0  0  0  0  0
   -1.9740  -11.5410    0.0000 C   0  0  0  0  0  0  0  0  0  0  0  0
   -3.2530  -10.7570    0.0000 C   0  0  0  0  0  0  0  0  0  0  0  0
   -3.2140   -9.2580    0.0000 C   0  0  0  0  0  0  0  0  0  0  0  0
   10.9860  -12.8910    0.0000 H   0  0  0  0  0  0  0  0  0  0  0  0
   11.9000  -11.3990    0.0000 H   0  0  0  0  0  0  0  0  0  0  0  0
    8.3990  -12.4420    0.8900 H   0  0  0  0  0  0  0  0  0  0  0  0
    8.3990  -12.4420   -0.8900 H   0  0  0  0  0  0  0  0  0  0  0  0
    5.8020  -12.3740    0.8900 H   0  0  0  0  0  0  0  0  0  0  0  0
    5.8020  -12.3740   -0.8900 H   0  0  0  0  0  0  0  0  0  0  0  0
    4.5560  -10.3320   -0.8900 H   0  0  0  0  0  0  0  0  0  0  0  0
    4.5560  -10.3320    0.8900 H   0  0  0  0  0  0  0  0  0  0  0  0
    3.2030  -12.3060    0.8900 H   0  0  0  0  0  0  0  0  0  0  0  0
    3.2030  -12.3060   -0.8900 H   0  0  0  0  0  0  0  0  0  0  0  0
    1.9590  -10.2640   -0.8900 H   0  0  0  0  0  0  0  0  0  0  0  0
    1.9590  -10.2640    0.8900 H   0  0  0  0  0  0  0  0  0  0  0  0
   -0.6400  -10.1960   -0.8900 H   0  0  0  0  0  0  0  0  0  0  0  0
   -0.6400  -10.1960    0.8900 H   0  0  0  0  0  0  0  0  0  0  0  0
   -1.9900  -12.1700    0.8900 H   0  0  0  0  0  0  0  0  0  0  0  0
   -1.9900  -12.1700   -0.8900 H   0  0  0  0  0  0  0  0  0  0  0  0
   -3.8060  -11.0570    0.8900 H   0  0  0  0  0  0  0  0  0  0  0  0
   -3.8060  -11.0570   -0.8900 H   0  0  0  0  0  0  0  0  0  0  0  0
   -2.6610   -8.9580   -0.8900 H   0  0  0  0  0  0  0  0  0  0  0  0
   -2.6610   -8.9580    0.8900 H   0  0  0  0  0  0  0  0  0  0  0  0
   -4.2060   -8.8070    0.0000 H   0  0  0  0  0  0  0  0  0  0  0  0
  1  2  2  0  0  0  0
  2  3  1  0  0  0  0
  2  4  1  0  0  0  0
  3 15  1  0  0  0  0
  3 16  1  0  0  0  0
  4  5  1  0  0  0  0
  4 17  1  0  0  0  0
  4 18  1  0  0  0  0
  5  6  1  0  0  0  0
  6  7  1  0  0  0  0
  6 19  1  0  0  0  0
  6 20  1  0  0  0  0
  7  8  1  0  0  0  0
  7 21  1  0  0  0  0
  7 22  1  0  0  0  0
  8  9  1  0  0  0  0
  8 23  1  0  0  0  0
  8 24  1  0  0  0  0
  9 10  1  0  0  0  0
  9 25  1  0  0  0  0
  9 26  1  0  0  0  0
 10 11  1  0  0  0  0
 11 12  1  0  0  0  0
 11 27  1  0  0  0  0
 11 28  1  0  0  0  0
 12 13  1  0  0  0  0
 12 29  1  0  0  0  0
 12 30  1  0  0  0  0
 13 14  1  0  0  0  0
 13 31  1  0  0  0  0
 13 32  1  0  0  0  0
 14 33  1  0  0  0  0
 14 34  1  0  0  0  0
 14 35  1  0  0  0  0
M  END
