5p9j_1.pdb
  MOE2019           3D

  9  8  0  0  0  0  0  0  0  0999 V2000
   13.8810   -0.0870    0.0000 O   0  0  0  0  0  0  0  0  0  0  0  0
   13.9120    0.4710    0.7800 H   0  0  0  0  0  0  0  0  0  0  0  0
   12.5590   -0.7940    0.0000 C   0  0  0  0  0  0  0  0  0  0  0  0
   11.2850   -0.0020    0.0000 C   0  0  0  0  0  0  0  0  0  0  0  0
   12.5390   -1.4230    0.8900 H   0  0  0  0  0  0  0  0  0  0  0  0
   12.5390   -1.4230   -0.8900 H   0  0  0  0  0  0  0  0  0  0  0  0
   11.3050    0.6270   -0.8900 H   0  0  0  0  0  0  0  0  0  0  0  0
   10.3950   -0.6310    0.0000 H   0  0  0  0  0  0  0  0  0  0  0  0
   11.3050    0.6270    0.8900 H   0  0  0  0  0  0  0  0  0  0  0  0
  1  2  1  0  0  0  0
  1  3  1  0  0  0  0
  3  4  1  0  0  0  0
  3  5  1  0  0  0  0
  3  6  1  0  0  0  0
  4  7  1  0  0  0  0
  4  8  1  0  0  0  0
  4  9  1  0  0  0  0
M  END
