5t8e_41.pdb
  MOE2019           3D

 16 15  0  0  0  0  0  0  0  0999 V2000
  -11.3570    3.5260    0.0000 C   0  0  0  0  0  0  0  0  0  0  0  0
  -10.0760    4.3060    0.0000 C   0  0  0  0  0  0  0  0  0  0  0  0
   -8.7600    3.5870    0.0000 O   0  0  0  0  0  0  0  0  0  0  0  0
   -7.4790    4.3670    0.0000 C   0  0  0  0  0  0  0  0  0  0  0  0
   -6.1630    3.6470    0.0000 C   0  0  0  0  0  0  0  0  0  0  0  0
   -4.8810    4.4270    0.0000 O   0  0  0  0  0  0  0  0  0  0  0  0
   -4.1570    3.7960    0.0000 H   0  0  0  0  0  0  0  0  0  0  0  0
  -11.3420    2.8970    0.8900 H   0  0  0  0  0  0  0  0  0  0  0  0
  -12.2420    4.1620    0.0000 H   0  0  0  0  0  0  0  0  0  0  0  0
  -11.3420    2.8970   -0.8900 H   0  0  0  0  0  0  0  0  0  0  0  0
  -10.0910    4.9350    0.8900 H   0  0  0  0  0  0  0  0  0  0  0  0
  -10.0910    4.9350   -0.8900 H   0  0  0  0  0  0  0  0  0  0  0  0
   -7.4940    4.9960   -0.8900 H   0  0  0  0  0  0  0  0  0  0  0  0
   -7.4940    4.9960    0.8900 H   0  0  0  0  0  0  0  0  0  0  0  0
   -6.1490    3.0180   -0.8900 H   0  0  0  0  0  0  0  0  0  0  0  0
   -6.1490    3.0180    0.8900 H   0  0  0  0  0  0  0  0  0  0  0  0
  1  2  1  0  0  0  0
  1  8  1  0  0  0  0
  1  9  1  0  0  0  0
  1 10  1  0  0  0  0
  2  3  1  0  0  0  0
  2 11  1  0  0  0  0
  2 12  1  0  0  0  0
  3  4  1  0  0  0  0
  4  5  1  0  0  0  0
  4 13  1  0  0  0  0
  4 14  1  0  0  0  0
  5  6  1  0  0  0  0
  5 15  1  0  0  0  0
  5 16  1  0  0  0  0
  6  7  1  0  0  0  0
M  END
