5t8e_46.pdb
  MOE2019           3D

 30 31  0  0  0  0  0  0  0  0999 V2000
    2.8890   12.7980    0.0000 C   0  0  0  0  0  0  0  0  0  0  0  0
    3.8270   13.3020    0.0000 H   0  0  0  0  0  0  0  0  0  0  0  0
    1.5680   12.0890    0.0000 C   0  0  0  0  0  0  0  0  0  0  0  0
    0.2460   11.3790    0.0000 C   0  0  0  0  0  0  0  0  0  0  0  0
    0.1990    9.8800    0.0000 C   0  0  0  0  0  0  0  0  0  0  0  0
   -1.1220    9.1710    0.0000 N   0  0  0  0  0  0  0  0  0  0  0  0
   -2.3970    9.9610    0.0000 C   0  0  0  0  0  0  0  0  0  0  0  0
   -3.7190    9.2510    0.0000 N   0  0  0  0  0  0  0  0  0  0  0  0
   -4.9940   10.0410    0.0000 C   0  0  0  0  0  0  0  0  0  0  0  0
   -6.3160    9.3320    0.0000 C   0  0  0  0  0  0  0  0  0  0  0  0
   -6.3620    7.8320    0.0000 N   0  0  0  0  0  0  0  0  0  0  0  0
   -7.6840    7.1230    0.0000 C   0  0  0  0  0  0  0  0  0  0  0  0
   -5.0870    7.0420    0.0000 C   0  0  0  0  0  0  0  0  0  0  0  0
   -3.7650    7.7520    0.0000 C   0  0  0  0  0  0  0  0  0  0  0  0
   -2.3510   11.4600    0.0000 C   0  0  0  0  0  0  0  0  0  0  0  0
   -1.0290   12.1690    0.0000 C   0  0  0  0  0  0  0  0  0  0  0  0
    1.1170    9.3110    0.0000 H   0  0  0  0  0  0  0  0  0  0  0  0
   -4.9740   10.6700    0.8900 H   0  0  0  0  0  0  0  0  0  0  0  0
   -4.9740   10.6700   -0.8900 H   0  0  0  0  0  0  0  0  0  0  0  0
   -6.8510    9.6630   -0.8900 H   0  0  0  0  0  0  0  0  0  0  0  0
   -6.8510    9.6630    0.8900 H   0  0  0  0  0  0  0  0  0  0  0  0
   -7.7040    6.4940   -0.8900 H   0  0  0  0  0  0  0  0  0  0  0  0
   -7.7040    6.4940    0.8900 H   0  0  0  0  0  0  0  0  0  0  0  0
   -8.5320    7.8070    0.0000 H   0  0  0  0  0  0  0  0  0  0  0  0
   -5.1060    6.4130    0.8900 H   0  0  0  0  0  0  0  0  0  0  0  0
   -5.1060    6.4130   -0.8900 H   0  0  0  0  0  0  0  0  0  0  0  0
   -3.2300    7.4210   -0.8900 H   0  0  0  0  0  0  0  0  0  0  0  0
   -3.2300    7.4210    0.8900 H   0  0  0  0  0  0  0  0  0  0  0  0
   -3.2690   12.0290    0.0000 H   0  0  0  0  0  0  0  0  0  0  0  0
   -0.9950   13.2480    0.0000 H   0  0  0  0  0  0  0  0  0  0  0  0
  1  2  1  0  0  0  0
  1  3  3  0  0  0  0
  3  4  1  0  0  0  0
  4  5  1  0  0  0  0
  4 16  2  0  0  0  0
  5  6  2  0  0  0  0
  5 17  1  0  0  0  0
  6  7  1  0  0  0  0
  7  8  1  0  0  0  0
  7 15  2  0  0  0  0
  8  9  1  0  0  0  0
  8 14  1  0  0  0  0
  9 10  1  0  0  0  0
  9 18  1  0  0  0  0
  9 19  1  0  0  0  0
 10 11  1  0  0  0  0
 10 20  1  0  0  0  0
 10 21  1  0  0  0  0
 11 12  1  0  0  0  0
 11 13  1  0  0  0  0
 12 22  1  0  0  0  0
 12 23  1  0  0  0  0
 12 24  1  0  0  0  0
 13 14  1  0  0  0  0
 13 25  1  0  0  0  0
 13 26  1  0  0  0  0
 14 27  1  0  0  0  0
 14 28  1  0  0  0  0
 15 16  1  0  0  0  0
 15 29  1  0  0  0  0
 16 30  1  0  0  0  0
M  END
