5t8e_57.pdb
  MOE2019           3D

 20 20  0  0  0  0  0  0  0  0999 V2000
   30.2560   -3.9230    0.0000 C   0  0  0  0  0  0  0  0  0  0  0  0
   31.3210   -3.9270    0.0000 H   0  0  0  0  0  0  0  0  0  0  0  0
   28.7560   -3.9180    0.0000 C   0  0  0  0  0  0  0  0  0  0  0  0
   27.2560   -3.9120    0.0000 C   0  0  0  0  0  0  0  0  0  0  0  0
   26.5020   -5.2080    0.0000 C   0  0  0  0  0  0  0  0  0  0  0  0
   25.0020   -5.2020    0.0000 C   0  0  0  0  0  0  0  0  0  0  0  0
   24.2560   -3.9010    0.0000 N   0  3  0  0  0  0  0  0  0  0  0  0
   25.0110   -2.6040    0.0000 C   0  0  0  0  0  0  0  0  0  0  0  0
   26.5110   -2.6100    0.0000 C   0  0  0  0  0  0  0  0  0  0  0  0
   27.2560   -3.9120    1.0900 H   0  0  0  0  0  0  0  0  0  0  0  0
   26.8150   -5.7540    0.8900 H   0  0  0  0  0  0  0  0  0  0  0  0
   26.8150   -5.7540   -0.8900 H   0  0  0  0  0  0  0  0  0  0  0  0
   24.6850   -5.7460    0.8900 H   0  0  0  0  0  0  0  0  0  0  0  0
   24.6850   -5.7460   -0.8900 H   0  0  0  0  0  0  0  0  0  0  0  0
   24.2560   -3.9010   -1.0100 H   0  0  0  0  0  0  0  0  0  0  0  0
   23.5420   -3.8990    0.7140 H   0  0  0  0  0  0  0  0  0  0  0  0
   24.6980   -2.0580   -0.8900 H   0  0  0  0  0  0  0  0  0  0  0  0
   24.6980   -2.0580    0.8900 H   0  0  0  0  0  0  0  0  0  0  0  0
   26.8280   -2.0660   -0.8900 H   0  0  0  0  0  0  0  0  0  0  0  0
   26.8280   -2.0660    0.8900 H   0  0  0  0  0  0  0  0  0  0  0  0
  1  2  1  0  0  0  0
  1  3  3  0  0  0  0
  3  4  1  0  0  0  0
  4  5  1  0  0  0  0
  4  9  1  0  0  0  0
  4 10  1  0  0  0  0
  5  6  1  0  0  0  0
  5 11  1  0  0  0  0
  5 12  1  0  0  0  0
  6  7  1  0  0  0  0
  6 13  1  0  0  0  0
  6 14  1  0  0  0  0
  7  8  1  0  0  0  0
  7 15  1  0  0  0  0
  7 16  1  0  0  0  0
  8  9  1  0  0  0  0
  8 17  1  0  0  0  0
  8 18  1  0  0  0  0
  9 19  1  0  0  0  0
  9 20  1  0  0  0  0
M  CHG  1   7   1
M  END
