5t8e_58.pdb
  MOE2019           3D

 20 20  0  0  0  0  0  0  0  0999 V2000
   30.7350   -3.9180    0.0000 C   0  0  0  0  0  0  0  0  0  0  0  0
   31.8000   -3.9210    0.0000 H   0  0  0  0  0  0  0  0  0  0  0  0
   29.2350   -3.9140    0.0000 C   0  0  0  0  0  0  0  0  0  0  0  0
   27.7350   -3.9090    0.0000 C   0  0  0  0  0  0  0  0  0  0  0  0
   26.9810   -5.2060    0.0000 C   0  0  0  0  0  0  0  0  0  0  0  0
   25.4810   -5.2020    0.0000 C   0  0  0  0  0  0  0  0  0  0  0  0
   24.7350   -3.9010    0.0000 N   0  3  0  0  0  0  0  0  0  0  0  0
   25.4890   -2.6040    0.0000 C   0  0  0  0  0  0  0  0  0  0  0  0
   26.9890   -2.6080    0.0000 C   0  0  0  0  0  0  0  0  0  0  0  0
   27.7350   -3.9090    1.0900 H   0  0  0  0  0  0  0  0  0  0  0  0
   27.2940   -5.7520    0.8900 H   0  0  0  0  0  0  0  0  0  0  0  0
   27.2940   -5.7520   -0.8900 H   0  0  0  0  0  0  0  0  0  0  0  0
   25.1650   -5.7460    0.8900 H   0  0  0  0  0  0  0  0  0  0  0  0
   25.1650   -5.7460   -0.8900 H   0  0  0  0  0  0  0  0  0  0  0  0
   24.7350   -3.9010   -1.0100 H   0  0  0  0  0  0  0  0  0  0  0  0
   24.0210   -3.8990    0.7140 H   0  0  0  0  0  0  0  0  0  0  0  0
   25.1760   -2.0580   -0.8900 H   0  0  0  0  0  0  0  0  0  0  0  0
   25.1760   -2.0580    0.8900 H   0  0  0  0  0  0  0  0  0  0  0  0
   27.3050   -2.0640   -0.8900 H   0  0  0  0  0  0  0  0  0  0  0  0
   27.3050   -2.0640    0.8900 H   0  0  0  0  0  0  0  0  0  0  0  0
  1  2  1  0  0  0  0
  1  3  3  0  0  0  0
  3  4  1  0  0  0  0
  4  5  1  0  0  0  0
  4  9  1  0  0  0  0
  4 10  1  0  0  0  0
  5  6  1  0  0  0  0
  5 11  1  0  0  0  0
  5 12  1  0  0  0  0
  6  7  1  0  0  0  0
  6 13  1  0  0  0  0
  6 14  1  0  0  0  0
  7  8  1  0  0  0  0
  7 15  1  0  0  0  0
  7 16  1  0  0  0  0
  8  9  1  0  0  0  0
  8 17  1  0  0  0  0
  8 18  1  0  0  0  0
  9 19  1  0  0  0  0
  9 20  1  0  0  0  0
M  CHG  1   7   1
M  END
