5t8e_25.pdb
  MOE2019           3D

 28 27  0  0  0  0  0  0  0  0999 V2000
   -0.8750  -13.1590    0.0000 C   0  0  0  0  0  0  0  0  0  0  0  0
   -2.1910  -13.8780    0.0000 C   0  0  0  0  0  0  0  0  0  0  0  0
   -3.4720  -13.0980    0.0000 C   0  0  0  0  0  0  0  0  0  0  0  0
   -4.7880  -13.8180    0.0000 C   0  0  0  0  0  0  0  0  0  0  0  0
   -6.0700  -13.0380    0.0000 C   0  0  0  0  0  0  0  0  0  0  0  0
   -7.3860  -13.7570    0.0000 O   0  0  0  0  0  0  0  0  0  0  0  0
   -8.6670  -12.9770    0.0000 C   0  0  0  0  0  0  0  0  0  0  0  0
   -9.9830  -13.6970    0.0000 C   0  0  0  0  0  0  0  0  0  0  0  0
  -11.2640  -12.9170    0.0000 C   0  0  0  0  0  0  0  0  0  0  0  0
  -12.5810  -13.6360    0.0000 O   0  0  0  0  0  0  0  0  0  0  0  0
  -13.2740  -12.9720    0.0000 H   0  0  0  0  0  0  0  0  0  0  0  0
   -0.8600  -12.5300    0.8900 H   0  0  0  0  0  0  0  0  0  0  0  0
   -0.0210  -13.8370    0.0000 H   0  0  0  0  0  0  0  0  0  0  0  0
   -0.8600  -12.5300   -0.8900 H   0  0  0  0  0  0  0  0  0  0  0  0
   -2.2060  -14.5070   -0.8900 H   0  0  0  0  0  0  0  0  0  0  0  0
   -2.2060  -14.5070    0.8900 H   0  0  0  0  0  0  0  0  0  0  0  0
   -3.4570  -12.4690    0.8900 H   0  0  0  0  0  0  0  0  0  0  0  0
   -3.4570  -12.4690   -0.8900 H   0  0  0  0  0  0  0  0  0  0  0  0
   -4.8020  -14.4470    0.8900 H   0  0  0  0  0  0  0  0  0  0  0  0
   -4.8020  -14.4470   -0.8900 H   0  0  0  0  0  0  0  0  0  0  0  0
   -6.0550  -12.4090   -0.8900 H   0  0  0  0  0  0  0  0  0  0  0  0
   -6.0550  -12.4090    0.8900 H   0  0  0  0  0  0  0  0  0  0  0  0
   -8.6520  -12.3480    0.8900 H   0  0  0  0  0  0  0  0  0  0  0  0
   -8.6520  -12.3480   -0.8900 H   0  0  0  0  0  0  0  0  0  0  0  0
   -9.9980  -14.3260    0.8900 H   0  0  0  0  0  0  0  0  0  0  0  0
   -9.9980  -14.3260   -0.8900 H   0  0  0  0  0  0  0  0  0  0  0  0
  -11.2490  -12.2880   -0.8900 H   0  0  0  0  0  0  0  0  0  0  0  0
  -11.2490  -12.2880    0.8900 H   0  0  0  0  0  0  0  0  0  0  0  0
  1  2  1  0  0  0  0
  1 12  1  0  0  0  0
  1 13  1  0  0  0  0
  1 14  1  0  0  0  0
  2  3  1  0  0  0  0
  2 15  1  0  0  0  0
  2 16  1  0  0  0  0
  3  4  1  0  0  0  0
  3 17  1  0  0  0  0
  3 18  1  0  0  0  0
  4  5  1  0  0  0  0
  4 19  1  0  0  0  0
  4 20  1  0  0  0  0
  5  6  1  0  0  0  0
  5 21  1  0  0  0  0
  5 22  1  0  0  0  0
  6  7  1  0  0  0  0
  7  8  1  0  0  0  0
  7 23  1  0  0  0  0
  7 24  1  0  0  0  0
  8  9  1  0  0  0  0
  8 25  1  0  0  0  0
  8 26  1  0  0  0  0
  9 10  1  0  0  0  0
  9 27  1  0  0  0  0
  9 28  1  0  0  0  0
 10 11  1  0  0  0  0
M  END
