5tob_14.pdb
  MOE2019           3D

 33 32  0  0  0  0  0  0  0  0999 V2000
    9.9130  -15.2200    0.0000 N   0  0  0  0  0  0  0  0  0  0  0  0
    9.6400  -16.1920    0.0000 H   0  0  0  0  0  0  0  0  0  0  0  0
   11.3660  -14.8490    0.0000 N   0  0  0  0  0  0  0  0  0  0  0  0
   12.1680  -16.1170    0.0000 N   0  0  0  0  0  0  0  0  0  0  0  0
   13.6650  -16.2130    0.0000 C   0  0  0  0  0  0  0  0  0  0  0  0
   14.4970  -14.9650    0.0000 C   0  0  0  0  0  0  0  0  0  0  0  0
   15.9940  -15.0620    0.0000 C   0  0  0  0  0  0  0  0  0  0  0  0
   16.8260  -13.8130    0.0000 C   0  0  0  0  0  0  0  0  0  0  0  0
   18.3230  -13.9100    0.0000 C   0  0  0  0  0  0  0  0  0  0  0  0
   19.1550  -12.6620    0.0000 C   0  0  0  0  0  0  0  0  0  0  0  0
   20.6520  -12.7580    0.0000 C   0  0  0  0  0  0  0  0  0  0  0  0
   21.4840  -11.5100    0.0000 C   0  0  0  0  0  0  0  0  0  0  0  0
   11.2100  -17.2710    0.0000 C   0  0  0  0  0  0  0  0  0  0  0  0
   10.1870  -16.8940    0.0000 H   0  0  0  0  0  0  0  0  0  0  0  0
   11.3730  -17.8790    0.8900 H   0  0  0  0  0  0  0  0  0  0  0  0
   11.3730  -17.8790   -0.8900 H   0  0  0  0  0  0  0  0  0  0  0  0
   13.9440  -16.7770   -0.8900 H   0  0  0  0  0  0  0  0  0  0  0  0
   13.9440  -16.7770    0.8900 H   0  0  0  0  0  0  0  0  0  0  0  0
   14.2180  -14.4010    0.8900 H   0  0  0  0  0  0  0  0  0  0  0  0
   14.2180  -14.4010   -0.8900 H   0  0  0  0  0  0  0  0  0  0  0  0
   16.2730  -15.6260   -0.8900 H   0  0  0  0  0  0  0  0  0  0  0  0
   16.2730  -15.6260    0.8900 H   0  0  0  0  0  0  0  0  0  0  0  0
   16.5470  -13.2490    0.8900 H   0  0  0  0  0  0  0  0  0  0  0  0
   16.5470  -13.2490   -0.8900 H   0  0  0  0  0  0  0  0  0  0  0  0
   18.6020  -14.4740   -0.8900 H   0  0  0  0  0  0  0  0  0  0  0  0
   18.6020  -14.4740    0.8900 H   0  0  0  0  0  0  0  0  0  0  0  0
   18.8760  -12.0980    0.8900 H   0  0  0  0  0  0  0  0  0  0  0  0
   18.8760  -12.0980   -0.8900 H   0  0  0  0  0  0  0  0  0  0  0  0
   20.9310  -13.3220   -0.8900 H   0  0  0  0  0  0  0  0  0  0  0  0
   20.9310  -13.3220    0.8900 H   0  0  0  0  0  0  0  0  0  0  0  0
   21.2050  -10.9460    0.8900 H   0  0  0  0  0  0  0  0  0  0  0  0
   22.5550  -11.7140    0.0000 H   0  0  0  0  0  0  0  0  0  0  0  0
   21.2050  -10.9460   -0.8900 H   0  0  0  0  0  0  0  0  0  0  0  0
  1  2  1  0  0  0  0
  1  3  2  0  0  0  0
  3  4  1  0  0  0  0
  4  5  1  0  0  0  0
  4 13  1  0  0  0  0
  5  6  1  0  0  0  0
  5 17  1  0  0  0  0
  5 18  1  0  0  0  0
  6  7  1  0  0  0  0
  6 19  1  0  0  0  0
  6 20  1  0  0  0  0
  7  8  1  0  0  0  0
  7 21  1  0  0  0  0
  7 22  1  0  0  0  0
  8  9  1  0  0  0  0
  8 23  1  0  0  0  0
  8 24  1  0  0  0  0
  9 10  1  0  0  0  0
  9 25  1  0  0  0  0
  9 26  1  0  0  0  0
 10 11  1  0  0  0  0
 10 27  1  0  0  0  0
 10 28  1  0  0  0  0
 11 12  1  0  0  0  0
 11 29  1  0  0  0  0
 11 30  1  0  0  0  0
 12 31  1  0  0  0  0
 12 32  1  0  0  0  0
 12 33  1  0  0  0  0
 13 14  1  0  0  0  0
 13 15  1  0  0  0  0
 13 16  1  0  0  0  0
M  END
