5tob_17.pdb
  MOE2019           3D

 32 31  0  0  0  0  0  0  0  0999 V2000
  -11.5590   10.2050    0.0000 N   0  0  0  0  0  0  0  0  0  0  0  0
  -12.2810   10.9110    0.0000 H   0  0  0  0  0  0  0  0  0  0  0  0
  -10.1150   10.6100    0.0000 N   0  0  0  0  0  0  0  0  0  0  0  0
  -10.0550   12.1090    0.0000 N   0  0  0  0  0  0  0  0  0  0  0  0
   -8.8070   12.9410    0.0000 C   0  0  0  0  0  0  0  0  0  0  0  0
   -7.4620   12.2760    0.0000 C   0  0  0  0  0  0  0  0  0  0  0  0
   -7.3650   10.7790    0.0000 C   0  0  0  0  0  0  0  0  0  0  0  0
   -6.0210   10.1140    0.0000 C   0  0  0  0  0  0  0  0  0  0  0  0
   -5.9240    8.6180    0.0000 C   0  0  0  0  0  0  0  0  0  0  0  0
   -4.5800    7.9530    0.0000 C   0  0  0  0  0  0  0  0  0  0  0  0
   -3.3320    8.7850    0.0000 C   0  0  0  0  0  0  0  0  0  0  0  0
   -1.9870    8.1200    0.0000 C   0  0  0  0  0  0  0  0  0  0  0  0
   -0.6420    7.4550    0.0000 C   0  0  0  0  0  0  0  0  0  0  0  0
    0.3130    6.9830    0.0000 H   0  0  0  0  0  0  0  0  0  0  0  0
  -11.4610   12.6300    0.0000 C   0  0  0  0  0  0  0  0  0  0  0  0
  -12.1590   11.7930    0.0000 H   0  0  0  0  0  0  0  0  0  0  0  0
  -11.6230   13.2380   -0.8900 H   0  0  0  0  0  0  0  0  0  0  0  0
  -11.6230   13.2380    0.8900 H   0  0  0  0  0  0  0  0  0  0  0  0
   -8.8480   13.5690    0.8900 H   0  0  0  0  0  0  0  0  0  0  0  0
   -8.8480   13.5690   -0.8900 H   0  0  0  0  0  0  0  0  0  0  0  0
   -6.9380   12.6250    0.8900 H   0  0  0  0  0  0  0  0  0  0  0  0
   -6.9380   12.6250   -0.8900 H   0  0  0  0  0  0  0  0  0  0  0  0
   -7.8890   10.4300   -0.8900 H   0  0  0  0  0  0  0  0  0  0  0  0
   -7.8890   10.4300    0.8900 H   0  0  0  0  0  0  0  0  0  0  0  0
   -5.4970   10.4630    0.8900 H   0  0  0  0  0  0  0  0  0  0  0  0
   -5.4970   10.4630   -0.8900 H   0  0  0  0  0  0  0  0  0  0  0  0
   -6.4480    8.2690   -0.8900 H   0  0  0  0  0  0  0  0  0  0  0  0
   -6.4480    8.2690    0.8900 H   0  0  0  0  0  0  0  0  0  0  0  0
   -4.5400    7.3250   -0.8900 H   0  0  0  0  0  0  0  0  0  0  0  0
   -4.5400    7.3250    0.8900 H   0  0  0  0  0  0  0  0  0  0  0  0
   -3.3730    9.4130    0.8900 H   0  0  0  0  0  0  0  0  0  0  0  0
   -3.3730    9.4130   -0.8900 H   0  0  0  0  0  0  0  0  0  0  0  0
  1  2  1  0  0  0  0
  1  3  2  0  0  0  0
  3  4  1  0  0  0  0
  4  5  1  0  0  0  0
  4 15  1  0  0  0  0
  5  6  1  0  0  0  0
  5 19  1  0  0  0  0
  5 20  1  0  0  0  0
  6  7  1  0  0  0  0
  6 21  1  0  0  0  0
  6 22  1  0  0  0  0
  7  8  1  0  0  0  0
  7 23  1  0  0  0  0
  7 24  1  0  0  0  0
  8  9  1  0  0  0  0
  8 25  1  0  0  0  0
  8 26  1  0  0  0  0
  9 10  1  0  0  0  0
  9 27  1  0  0  0  0
  9 28  1  0  0  0  0
 10 11  1  0  0  0  0
 10 29  1  0  0  0  0
 10 30  1  0  0  0  0
 11 12  1  0  0  0  0
 11 31  1  0  0  0  0
 11 32  1  0  0  0  0
 12 13  3  0  0  0  0
 13 14  1  0  0  0  0
 15 16  1  0  0  0  0
 15 17  1  0  0  0  0
 15 18  1  0  0  0  0
M  END
