5tob_15.pdb
  MOE2019           3D

 28 27  0  0  0  0  0  0  0  0999 V2000
  -12.2160   10.3950    0.0000 N   0  0  0  0  0  0  0  0  0  0  0  0
  -12.9390   11.1000    0.0000 H   0  0  0  0  0  0  0  0  0  0  0  0
  -10.7720   10.8010    0.0000 N   0  0  0  0  0  0  0  0  0  0  0  0
  -10.7110   12.2990    0.0000 N   0  0  0  0  0  0  0  0  0  0  0  0
   -9.4630   13.1310    0.0000 C   0  0  0  0  0  0  0  0  0  0  0  0
   -8.1190   12.4660    0.0000 C   0  0  0  0  0  0  0  0  0  0  0  0
   -6.8710   13.2990    0.0000 O   0  0  0  0  0  0  0  0  0  0  0  0
   -5.5260   12.6340    0.0000 C   0  0  0  0  0  0  0  0  0  0  0  0
   -4.2780   13.4660    0.0000 C   0  0  0  0  0  0  0  0  0  0  0  0
   -2.9330   12.8010    0.0000 O   0  0  0  0  0  0  0  0  0  0  0  0
   -1.6850   13.6330    0.0000 C   0  0  0  0  0  0  0  0  0  0  0  0
   -0.3410   12.9680    0.0000 C   0  0  0  0  0  0  0  0  0  0  0  0
    1.0040   12.3030    0.0000 C   0  0  0  0  0  0  0  0  0  0  0  0
    1.9590   11.8310    0.0000 H   0  0  0  0  0  0  0  0  0  0  0  0
  -12.1180   12.8200    0.0000 C   0  0  0  0  0  0  0  0  0  0  0  0
  -12.1020   13.9100    0.0000 H   0  0  0  0  0  0  0  0  0  0  0  0
  -12.6370   12.4640    0.8900 H   0  0  0  0  0  0  0  0  0  0  0  0
  -12.6370   12.4640   -0.8900 H   0  0  0  0  0  0  0  0  0  0  0  0
   -9.5030   13.7590    0.8900 H   0  0  0  0  0  0  0  0  0  0  0  0
   -9.5030   13.7590   -0.8900 H   0  0  0  0  0  0  0  0  0  0  0  0
   -8.0780   11.8380   -0.8900 H   0  0  0  0  0  0  0  0  0  0  0  0
   -8.0780   11.8380    0.8900 H   0  0  0  0  0  0  0  0  0  0  0  0
   -5.4850   12.0060   -0.8900 H   0  0  0  0  0  0  0  0  0  0  0  0
   -5.4850   12.0060    0.8900 H   0  0  0  0  0  0  0  0  0  0  0  0
   -4.3190   14.0940    0.8900 H   0  0  0  0  0  0  0  0  0  0  0  0
   -4.3190   14.0940   -0.8900 H   0  0  0  0  0  0  0  0  0  0  0  0
   -1.7250   14.2610    0.8900 H   0  0  0  0  0  0  0  0  0  0  0  0
   -1.7250   14.2610   -0.8900 H   0  0  0  0  0  0  0  0  0  0  0  0
  1  2  1  0  0  0  0
  1  3  2  0  0  0  0
  3  4  1  0  0  0  0
  4  5  1  0  0  0  0
  4 15  1  0  0  0  0
  5  6  1  0  0  0  0
  5 19  1  0  0  0  0
  5 20  1  0  0  0  0
  6  7  1  0  0  0  0
  6 21  1  0  0  0  0
  6 22  1  0  0  0  0
  7  8  1  0  0  0  0
  8  9  1  0  0  0  0
  8 23  1  0  0  0  0
  8 24  1  0  0  0  0
  9 10  1  0  0  0  0
  9 25  1  0  0  0  0
  9 26  1  0  0  0  0
 10 11  1  0  0  0  0
 11 12  1  0  0  0  0
 11 27  1  0  0  0  0
 11 28  1  0  0  0  0
 12 13  3  0  0  0  0
 13 14  1  0  0  0  0
 15 16  1  0  0  0  0
 15 17  1  0  0  0  0
 15 18  1  0  0  0  0
M  END
