5tob_21.pdb
  MOE2019           3D

 22 21  0  0  0  0  0  0  0  0999 V2000
    8.2310  -17.1880    0.0000 N   0  0  0  0  0  0  0  0  0  0  0  0
    7.2510  -16.9420    0.0000 H   0  0  0  0  0  0  0  0  0  0  0  0
    9.2750  -16.1110    0.0000 N   0  0  0  0  0  0  0  0  0  0  0  0
    8.5740  -14.7850    0.0000 N   0  0  0  0  0  0  0  0  0  0  0  0
    9.2340  -13.4380    0.0000 C   0  0  0  0  0  0  0  0  0  0  0  0
   10.7310  -13.3360    0.0000 C   0  0  0  0  0  0  0  0  0  0  0  0
   11.3910  -11.9900    0.0000 O   0  0  0  0  0  0  0  0  0  0  0  0
   12.8880  -11.8880    0.0000 C   0  0  0  0  0  0  0  0  0  0  0  0
   13.5480  -10.5410    0.0000 C   0  0  0  0  0  0  0  0  0  0  0  0
    7.0960  -15.0420    0.0000 C   0  0  0  0  0  0  0  0  0  0  0  0
    6.5620  -14.0920    0.0000 H   0  0  0  0  0  0  0  0  0  0  0  0
    6.8260  -15.6100    0.8900 H   0  0  0  0  0  0  0  0  0  0  0  0
    6.8260  -15.6100   -0.8900 H   0  0  0  0  0  0  0  0  0  0  0  0
    8.8830  -12.9160    0.8900 H   0  0  0  0  0  0  0  0  0  0  0  0
    8.8830  -12.9160   -0.8900 H   0  0  0  0  0  0  0  0  0  0  0  0
   11.0820  -13.8580   -0.8900 H   0  0  0  0  0  0  0  0  0  0  0  0
   11.0820  -13.8580    0.8900 H   0  0  0  0  0  0  0  0  0  0  0  0
   13.2390  -12.4100   -0.8900 H   0  0  0  0  0  0  0  0  0  0  0  0
   13.2390  -12.4100    0.8900 H   0  0  0  0  0  0  0  0  0  0  0  0
   13.1970  -10.0190    0.8900 H   0  0  0  0  0  0  0  0  0  0  0  0
   14.6360  -10.6010    0.0000 H   0  0  0  0  0  0  0  0  0  0  0  0
   13.1970  -10.0190   -0.8900 H   0  0  0  0  0  0  0  0  0  0  0  0
  1  2  1  0  0  0  0
  1  3  2  0  0  0  0
  3  4  1  0  0  0  0
  4  5  1  0  0  0  0
  4 10  1  0  0  0  0
  5  6  1  0  0  0  0
  5 14  1  0  0  0  0
  5 15  1  0  0  0  0
  6  7  1  0  0  0  0
  6 16  1  0  0  0  0
  6 17  1  0  0  0  0
  7  8  1  0  0  0  0
  8  9  1  0  0  0  0
  8 18  1  0  0  0  0
  8 19  1  0  0  0  0
  9 20  1  0  0  0  0
  9 21  1  0  0  0  0
  9 22  1  0  0  0  0
 10 11  1  0  0  0  0
 10 12  1  0  0  0  0
 10 13  1  0  0  0  0
M  END
