5trf_10.pdb
  MOE2019           3D

 29 28  0  0  0  0  0  0  0  0999 V2000
   12.4820    4.7120    0.0000 C   0  0  0  0  0  0  0  0  0  0  0  0
   13.7850    5.4560    0.0000 C   0  0  0  0  0  0  0  0  0  0  0  0
   15.0800    4.6990    0.0000 O   0  0  0  0  0  0  0  0  0  0  0  0
   16.3830    5.4420    0.0000 C   0  0  0  0  0  0  0  0  0  0  0  0
   17.6780    4.6860    0.0000 C   0  0  0  0  0  0  0  0  0  0  0  0
   18.9810    5.4290    0.0000 O   0  0  0  0  0  0  0  0  0  0  0  0
   20.2760    4.6720    0.0000 C   0  0  0  0  0  0  0  0  0  0  0  0
   21.5790    5.4160    0.0000 C   0  0  0  0  0  0  0  0  0  0  0  0
   22.8740    4.6590    0.0000 O   0  0  0  0  0  0  0  0  0  0  0  0
   24.1770    5.4020    0.0000 C   0  0  0  0  0  0  0  0  0  0  0  0
   25.4720    4.6460    0.0000 C   0  0  0  0  0  0  0  0  0  0  0  0
   12.4790    4.0830    0.8900 H   0  0  0  0  0  0  0  0  0  0  0  0
   12.4790    4.0830   -0.8900 H   0  0  0  0  0  0  0  0  0  0  0  0
   11.6150    5.3730    0.0000 H   0  0  0  0  0  0  0  0  0  0  0  0
   13.7880    6.0850    0.8900 H   0  0  0  0  0  0  0  0  0  0  0  0
   13.7880    6.0850   -0.8900 H   0  0  0  0  0  0  0  0  0  0  0  0
   16.3860    6.0710   -0.8900 H   0  0  0  0  0  0  0  0  0  0  0  0
   16.3860    6.0710    0.8900 H   0  0  0  0  0  0  0  0  0  0  0  0
   17.6750    4.0570   -0.8900 H   0  0  0  0  0  0  0  0  0  0  0  0
   17.6750    4.0570    0.8900 H   0  0  0  0  0  0  0  0  0  0  0  0
   20.2730    4.0430    0.8900 H   0  0  0  0  0  0  0  0  0  0  0  0
   20.2730    4.0430   -0.8900 H   0  0  0  0  0  0  0  0  0  0  0  0
   21.5820    6.0450    0.8900 H   0  0  0  0  0  0  0  0  0  0  0  0
   21.5820    6.0450   -0.8900 H   0  0  0  0  0  0  0  0  0  0  0  0
   24.1800    6.0310   -0.8900 H   0  0  0  0  0  0  0  0  0  0  0  0
   24.1800    6.0310    0.8900 H   0  0  0  0  0  0  0  0  0  0  0  0
   25.4690    4.0170   -0.8900 H   0  0  0  0  0  0  0  0  0  0  0  0
   25.4690    4.0170    0.8900 H   0  0  0  0  0  0  0  0  0  0  0  0
   26.3450    5.2990    0.0000 H   0  0  0  0  0  0  0  0  0  0  0  0
  1  2  1  0  0  0  0
  1 12  1  0  0  0  0
  1 13  1  0  0  0  0
  1 14  1  0  0  0  0
  2  3  1  0  0  0  0
  2 15  1  0  0  0  0
  2 16  1  0  0  0  0
  3  4  1  0  0  0  0
  4  5  1  0  0  0  0
  4 17  1  0  0  0  0
  4 18  1  0  0  0  0
  5  6  1  0  0  0  0
  5 19  1  0  0  0  0
  5 20  1  0  0  0  0
  6  7  1  0  0  0  0
  7  8  1  0  0  0  0
  7 21  1  0  0  0  0
  7 22  1  0  0  0  0
  8  9  1  0  0  0  0
  8 23  1  0  0  0  0
  8 24  1  0  0  0  0
  9 10  1  0  0  0  0
 10 11  1  0  0  0  0
 10 25  1  0  0  0  0
 10 26  1  0  0  0  0
 11 27  1  0  0  0  0
 11 28  1  0  0  0  0
 11 29  1  0  0  0  0
M  END
