5trf_9.pdb
  MOE2019           3D

 15 14  0  0  0  0  0  0  0  0999 V2000
   12.9430    6.8530    0.0000 C   0  0  0  0  0  0  0  0  0  0  0  0
   14.2580    6.1300    0.0000 C   0  0  0  0  0  0  0  0  0  0  0  0
   15.5410    6.9070    0.0000 O   0  0  0  0  0  0  0  0  0  0  0  0
   16.8550    6.1840    0.0000 C   0  0  0  0  0  0  0  0  0  0  0  0
   18.1380    6.9600    0.0000 C   0  0  0  0  0  0  0  0  0  0  0  0
   12.9300    7.4820   -0.8900 H   0  0  0  0  0  0  0  0  0  0  0  0
   12.9300    7.4820    0.8900 H   0  0  0  0  0  0  0  0  0  0  0  0
   12.0870    6.1780    0.0000 H   0  0  0  0  0  0  0  0  0  0  0  0
   14.2710    5.5010   -0.8900 H   0  0  0  0  0  0  0  0  0  0  0  0
   14.2710    5.5010    0.8900 H   0  0  0  0  0  0  0  0  0  0  0  0
   16.8680    5.5550    0.8900 H   0  0  0  0  0  0  0  0  0  0  0  0
   16.8680    5.5550   -0.8900 H   0  0  0  0  0  0  0  0  0  0  0  0
   18.1250    7.5890    0.8900 H   0  0  0  0  0  0  0  0  0  0  0  0
   18.1250    7.5890   -0.8900 H   0  0  0  0  0  0  0  0  0  0  0  0
   19.0210    6.3210    0.0000 H   0  0  0  0  0  0  0  0  0  0  0  0
  1  2  1  0  0  0  0
  1  6  1  0  0  0  0
  1  7  1  0  0  0  0
  1  8  1  0  0  0  0
  2  3  1  0  0  0  0
  2  9  1  0  0  0  0
  2 10  1  0  0  0  0
  3  4  1  0  0  0  0
  4  5  1  0  0  0  0
  4 11  1  0  0  0  0
  4 12  1  0  0  0  0
  5 13  1  0  0  0  0
  5 14  1  0  0  0  0
  5 15  1  0  0  0  0
M  END
