5uiu_10.pdb
  MOE2019           3D

 35 36  0  0  0  0  0  0  0  0999 V2000
    4.2170  -15.3720    0.0000 C   0  0  0  0  0  0  0  0  0  0  0  0
    3.2950  -14.8390    0.0000 H   0  0  0  0  0  0  0  0  0  0  0  0
    5.5160  -16.1220    0.0000 C   0  0  0  0  0  0  0  0  0  0  0  0
    6.8150  -16.8720    0.0000 C   0  0  0  0  0  0  0  0  0  0  0  0
    8.1140  -16.1220    0.0000 N   0  3  0  0  0  0  0  0  0  0  0  0
    9.4130  -16.8720    0.0000 C   0  0  0  0  0  0  0  0  0  0  0  0
   10.7120  -16.1220    0.0000 C   0  0  0  0  0  0  0  0  0  0  0  0
   10.7120  -14.6220    0.0000 C   0  0  0  0  0  0  0  0  0  0  0  0
    9.4130  -13.8720    0.0000 C   0  0  0  0  0  0  0  0  0  0  0  0
    8.1140  -14.6220    0.0000 C   0  0  0  0  0  0  0  0  0  0  0  0
   12.0110  -15.3720    0.0000 C   0  0  0  0  0  0  0  0  0  0  0  0
   13.3100  -14.6220    0.0000 C   0  0  0  0  0  0  0  0  0  0  0  0
   13.3100  -13.1220    0.0000 N   0  0  0  0  0  0  0  0  0  0  0  0
   14.1850  -12.6170    0.0000 H   0  0  0  0  0  0  0  0  0  0  0  0
   12.0110  -12.3720    0.0000 C   0  0  0  0  0  0  0  0  0  0  0  0
   10.7120  -13.1220    0.0000 C   0  0  0  0  0  0  0  0  0  0  0  0
    6.8150  -17.5010   -0.8900 H   0  0  0  0  0  0  0  0  0  0  0  0
    6.8150  -17.5010    0.8900 H   0  0  0  0  0  0  0  0  0  0  0  0
    8.1140  -16.1220   -1.0100 H   0  0  0  0  0  0  0  0  0  0  0  0
    9.4130  -17.5010    0.8900 H   0  0  0  0  0  0  0  0  0  0  0  0
    9.4130  -17.5010   -0.8900 H   0  0  0  0  0  0  0  0  0  0  0  0
   11.2570  -16.4370    0.8900 H   0  0  0  0  0  0  0  0  0  0  0  0
   11.2570  -16.4370   -0.8900 H   0  0  0  0  0  0  0  0  0  0  0  0
    9.4130  -13.2430   -0.8900 H   0  0  0  0  0  0  0  0  0  0  0  0
    9.4130  -13.2430    0.8900 H   0  0  0  0  0  0  0  0  0  0  0  0
    7.5690  -14.3070   -0.8900 H   0  0  0  0  0  0  0  0  0  0  0  0
    7.5690  -14.3070    0.8900 H   0  0  0  0  0  0  0  0  0  0  0  0
   12.0110  -16.0010   -0.8900 H   0  0  0  0  0  0  0  0  0  0  0  0
   12.0110  -16.0010    0.8900 H   0  0  0  0  0  0  0  0  0  0  0  0
   13.8550  -14.9370   -0.8900 H   0  0  0  0  0  0  0  0  0  0  0  0
   13.8550  -14.9370    0.8900 H   0  0  0  0  0  0  0  0  0  0  0  0
   12.0110  -11.7430    0.8900 H   0  0  0  0  0  0  0  0  0  0  0  0
   12.0110  -11.7430   -0.8900 H   0  0  0  0  0  0  0  0  0  0  0  0
   10.1670  -12.8070    0.8900 H   0  0  0  0  0  0  0  0  0  0  0  0
   10.1670  -12.8070   -0.8900 H   0  0  0  0  0  0  0  0  0  0  0  0
  1  2  1  0  0  0  0
  1  3  3  0  0  0  0
  3  4  1  0  0  0  0
  4  5  1  0  0  0  0
  4 17  1  0  0  0  0
  4 18  1  0  0  0  0
  5  6  1  0  0  0  0
  5 10  1  0  0  0  0
  5 19  1  0  0  0  0
  6  7  1  0  0  0  0
  6 20  1  0  0  0  0
  6 21  1  0  0  0  0
  7  8  1  0  0  0  0
  7 22  1  0  0  0  0
  7 23  1  0  0  0  0
  8  9  1  0  0  0  0
  8 11  1  0  0  0  0
  8 16  1  0  0  0  0
  9 10  1  0  0  0  0
  9 24  1  0  0  0  0
  9 25  1  0  0  0  0
 10 26  1  0  0  0  0
 10 27  1  0  0  0  0
 11 12  1  0  0  0  0
 11 28  1  0  0  0  0
 11 29  1  0  0  0  0
 12 13  1  0  0  0  0
 12 30  1  0  0  0  0
 12 31  1  0  0  0  0
 13 14  1  0  0  0  0
 13 15  1  0  0  0  0
 15 16  1  0  0  0  0
 15 32  1  0  0  0  0
 15 33  1  0  0  0  0
 16 34  1  0  0  0  0
 16 35  1  0  0  0  0
M  CHG  1   5   1
M  END
