5uiu_9.pdb
  MOE2019           3D

 31 30  0  0  0  0  0  0  0  0999 V2000
   31.3720   -5.6030    0.0000 C   0  0  0  0  0  0  0  0  0  0  0  0
   32.2940   -5.0700    0.0000 H   0  0  0  0  0  0  0  0  0  0  0  0
   30.0730   -6.3530    0.0000 C   0  0  0  0  0  0  0  0  0  0  0  0
   28.7740   -7.1030    0.0000 C   0  0  0  0  0  0  0  0  0  0  0  0
   27.4750   -6.3530    0.0000 C   0  0  0  0  0  0  0  0  0  0  0  0
   26.1760   -7.1030    0.0000 C   0  0  0  0  0  0  0  0  0  0  0  0
   24.8770   -6.3530    0.0000 C   0  0  0  0  0  0  0  0  0  0  0  0
   23.5780   -7.1030    0.0000 C   0  0  0  0  0  0  0  0  0  0  0  0
   22.2790   -6.3530    0.0000 C   0  0  0  0  0  0  0  0  0  0  0  0
   20.9800   -7.1030    0.0000 C   0  0  0  0  0  0  0  0  0  0  0  0
   19.6810   -6.3530    0.0000 C   0  0  0  0  0  0  0  0  0  0  0  0
   18.3820   -7.1030    0.0000 C   0  0  0  0  0  0  0  0  0  0  0  0
   28.7740   -7.7320   -0.8900 H   0  0  0  0  0  0  0  0  0  0  0  0
   28.7740   -7.7320    0.8900 H   0  0  0  0  0  0  0  0  0  0  0  0
   27.4750   -5.7240    0.8900 H   0  0  0  0  0  0  0  0  0  0  0  0
   27.4750   -5.7240   -0.8900 H   0  0  0  0  0  0  0  0  0  0  0  0
   26.1760   -7.7320   -0.8900 H   0  0  0  0  0  0  0  0  0  0  0  0
   26.1760   -7.7320    0.8900 H   0  0  0  0  0  0  0  0  0  0  0  0
   24.8770   -5.7240    0.8900 H   0  0  0  0  0  0  0  0  0  0  0  0
   24.8770   -5.7240   -0.8900 H   0  0  0  0  0  0  0  0  0  0  0  0
   23.5780   -7.7320   -0.8900 H   0  0  0  0  0  0  0  0  0  0  0  0
   23.5780   -7.7320    0.8900 H   0  0  0  0  0  0  0  0  0  0  0  0
   22.2790   -5.7240   -0.8900 H   0  0  0  0  0  0  0  0  0  0  0  0
   22.2790   -5.7240    0.8900 H   0  0  0  0  0  0  0  0  0  0  0  0
   20.9800   -7.7320    0.8900 H   0  0  0  0  0  0  0  0  0  0  0  0
   20.9800   -7.7320   -0.8900 H   0  0  0  0  0  0  0  0  0  0  0  0
   19.6810   -5.7240   -0.8900 H   0  0  0  0  0  0  0  0  0  0  0  0
   19.6810   -5.7240    0.8900 H   0  0  0  0  0  0  0  0  0  0  0  0
   18.3820   -7.7320    0.8900 H   0  0  0  0  0  0  0  0  0  0  0  0
   18.3820   -7.7320   -0.8900 H   0  0  0  0  0  0  0  0  0  0  0  0
   17.5120   -6.4460    0.0000 H   0  0  0  0  0  0  0  0  0  0  0  0
  1  2  1  0  0  0  0
  1  3  3  0  0  0  0
  3  4  1  0  0  0  0
  4  5  1  0  0  0  0
  4 13  1  0  0  0  0
  4 14  1  0  0  0  0
  5  6  1  0  0  0  0
  5 15  1  0  0  0  0
  5 16  1  0  0  0  0
  6  7  1  0  0  0  0
  6 17  1  0  0  0  0
  6 18  1  0  0  0  0
  7  8  1  0  0  0  0
  7 19  1  0  0  0  0
  7 20  1  0  0  0  0
  8  9  1  0  0  0  0
  8 21  1  0  0  0  0
  8 22  1  0  0  0  0
  9 10  1  0  0  0  0
  9 23  1  0  0  0  0
  9 24  1  0  0  0  0
 10 11  1  0  0  0  0
 10 25  1  0  0  0  0
 10 26  1  0  0  0  0
 11 12  1  0  0  0  0
 11 27  1  0  0  0  0
 11 28  1  0  0  0  0
 12 29  1  0  0  0  0
 12 30  1  0  0  0  0
 12 31  1  0  0  0  0
M  END
