5v5y_1.pdb
  MOE2019           3D

  8  7  0  0  0  0  0  0  0  0999 V2000
   15.4550    9.2820    0.0000 C   0  0  0  0  0  0  0  0  0  0  0  0
   14.1560   10.0320    0.0000 C   0  0  0  0  0  0  0  0  0  0  0  0
   15.4550    8.6530    0.8900 H   0  0  0  0  0  0  0  0  0  0  0  0
   16.3250    9.9390    0.0000 H   0  0  0  0  0  0  0  0  0  0  0  0
   15.4550    8.6530   -0.8900 H   0  0  0  0  0  0  0  0  0  0  0  0
   14.1560   10.6610   -0.8900 H   0  0  0  0  0  0  0  0  0  0  0  0
   13.2860    9.3750    0.0000 H   0  0  0  0  0  0  0  0  0  0  0  0
   14.1560   10.6610    0.8900 H   0  0  0  0  0  0  0  0  0  0  0  0
  1  2  1  0  0  0  0
  1  3  1  0  0  0  0
  1  4  1  0  0  0  0
  1  5  1  0  0  0  0
  2  6  1  0  0  0  0
  2  7  1  0  0  0  0
  2  8  1  0  0  0  0
M  END
