5v9o_11.pdb
  MOE2019           3D

 31 31  0  0  0  0  0  0  0  0999 V2000
    6.1650   -6.4830    0.0000 N   0  0  0  0  0  0  0  0  0  0  0  0
    7.4640   -5.7330    0.0000 C   0  0  0  0  0  0  0  0  0  0  0  0
    8.7630   -6.4830    0.0000 C   0  0  0  0  0  0  0  0  0  0  0  0
   10.0620   -5.7330    0.0000 N   0  0  0  0  0  0  0  0  0  0  0  0
   11.3610   -6.4830    0.0000 C   0  0  0  0  0  0  0  0  0  0  0  0
   12.6600   -5.7330    0.0000 C   0  0  0  0  0  0  0  0  0  0  0  0
   12.6600   -4.2330    0.0000 N   0  3  0  0  0  0  0  0  0  0  0  0
   13.9590   -3.4830    0.0000 C   0  0  0  0  0  0  0  0  0  0  0  0
   15.2580   -4.2330    0.0000 C   0  0  0  0  0  0  0  0  0  0  0  0
   11.3610   -3.4830    0.0000 C   0  0  0  0  0  0  0  0  0  0  0  0
   10.0620   -4.2330    0.0000 C   0  0  0  0  0  0  0  0  0  0  0  0
    6.1650   -7.4930    0.0000 H   0  0  0  0  0  0  0  0  0  0  0  0
    5.2900   -5.9780    0.0000 H   0  0  0  0  0  0  0  0  0  0  0  0
    7.4640   -5.1040    0.8900 H   0  0  0  0  0  0  0  0  0  0  0  0
    7.4640   -5.1040   -0.8900 H   0  0  0  0  0  0  0  0  0  0  0  0
    8.7630   -7.1120   -0.8900 H   0  0  0  0  0  0  0  0  0  0  0  0
    8.7630   -7.1120    0.8900 H   0  0  0  0  0  0  0  0  0  0  0  0
   11.3610   -7.1120   -0.8900 H   0  0  0  0  0  0  0  0  0  0  0  0
   11.3610   -7.1120    0.8900 H   0  0  0  0  0  0  0  0  0  0  0  0
   13.2050   -6.0480   -0.8900 H   0  0  0  0  0  0  0  0  0  0  0  0
   13.2050   -6.0480    0.8900 H   0  0  0  0  0  0  0  0  0  0  0  0
   12.6600   -4.2330   -1.0100 H   0  0  0  0  0  0  0  0  0  0  0  0
   13.9590   -2.8540    0.8900 H   0  0  0  0  0  0  0  0  0  0  0  0
   13.9590   -2.8540   -0.8900 H   0  0  0  0  0  0  0  0  0  0  0  0
   15.2580   -4.8620   -0.8900 H   0  0  0  0  0  0  0  0  0  0  0  0
   16.1280   -3.5760    0.0000 H   0  0  0  0  0  0  0  0  0  0  0  0
   15.2580   -4.8620    0.8900 H   0  0  0  0  0  0  0  0  0  0  0  0
   11.3610   -2.8540   -0.8900 H   0  0  0  0  0  0  0  0  0  0  0  0
   11.3610   -2.8540    0.8900 H   0  0  0  0  0  0  0  0  0  0  0  0
    9.5170   -3.9180    0.8900 H   0  0  0  0  0  0  0  0  0  0  0  0
    9.5170   -3.9180   -0.8900 H   0  0  0  0  0  0  0  0  0  0  0  0
  1  2  1  0  0  0  0
  1 12  1  0  0  0  0
  1 13  1  0  0  0  0
  2  3  1  0  0  0  0
  2 14  1  0  0  0  0
  2 15  1  0  0  0  0
  3  4  1  0  0  0  0
  3 16  1  0  0  0  0
  3 17  1  0  0  0  0
  4  5  1  0  0  0  0
  4 11  1  0  0  0  0
  5  6  1  0  0  0  0
  5 18  1  0  0  0  0
  5 19  1  0  0  0  0
  6  7  1  0  0  0  0
  6 20  1  0  0  0  0
  6 21  1  0  0  0  0
  7  8  1  0  0  0  0
  7 10  1  0  0  0  0
  7 22  1  0  0  0  0
  8  9  1  0  0  0  0
  8 23  1  0  0  0  0
  8 24  1  0  0  0  0
  9 25  1  0  0  0  0
  9 26  1  0  0  0  0
  9 27  1  0  0  0  0
 10 11  1  0  0  0  0
 10 28  1  0  0  0  0
 10 29  1  0  0  0  0
 11 30  1  0  0  0  0
 11 31  1  0  0  0  0
M  CHG  1   7   1
M  END
