5v9o_10.pdb
  MOE2019           3D

 28 27  0  0  1  0  0  0  0  0999 V2000
    7.4110   -4.4300    0.0000 N   0  0  0  0  0  0  0  0  0  0  0  0
    8.7100   -3.6800    0.0000 C   0  0  0  0  0  0  0  0  0  0  0  0
   10.0090   -4.4300    0.0000 C   0  0  0  0  0  0  0  0  0  0  0  0
   11.3080   -3.6800    0.0000 C   0  0  0  0  0  0  0  0  0  0  0  0
   12.6070   -4.4300    0.0000 N   0  3  3  0  0  0  0  0  0  0  0  0
   13.9060   -3.6800    0.0000 C   0  0  0  0  0  0  0  0  0  0  0  0
   15.2050   -4.4300    0.0000 C   0  0  0  0  0  0  0  0  0  0  0  0
   16.5040   -3.6800    0.0000 C   0  0  0  0  0  0  0  0  0  0  0  0
   12.6070   -5.9300    0.0000 C   0  0  0  0  0  0  0  0  0  0  0  0
    7.4110   -5.4400    0.0000 H   0  0  0  0  0  0  0  0  0  0  0  0
    6.5360   -3.9250    0.0000 H   0  0  0  0  0  0  0  0  0  0  0  0
    8.7100   -3.0510    0.8900 H   0  0  0  0  0  0  0  0  0  0  0  0
    8.7100   -3.0510   -0.8900 H   0  0  0  0  0  0  0  0  0  0  0  0
   10.0090   -5.0590   -0.8900 H   0  0  0  0  0  0  0  0  0  0  0  0
   10.0090   -5.0590    0.8900 H   0  0  0  0  0  0  0  0  0  0  0  0
   11.3080   -3.0510    0.8900 H   0  0  0  0  0  0  0  0  0  0  0  0
   11.3080   -3.0510   -0.8900 H   0  0  0  0  0  0  0  0  0  0  0  0
   12.6070   -4.4300    1.0100 H   0  0  0  0  0  0  0  0  0  0  0  0
   13.9060   -3.0510    0.8900 H   0  0  0  0  0  0  0  0  0  0  0  0
   13.9060   -3.0510   -0.8900 H   0  0  0  0  0  0  0  0  0  0  0  0
   15.2050   -5.0590   -0.8900 H   0  0  0  0  0  0  0  0  0  0  0  0
   15.2050   -5.0590    0.8900 H   0  0  0  0  0  0  0  0  0  0  0  0
   16.5040   -3.0510    0.8900 H   0  0  0  0  0  0  0  0  0  0  0  0
   17.3740   -4.3370    0.0000 H   0  0  0  0  0  0  0  0  0  0  0  0
   16.5040   -3.0510   -0.8900 H   0  0  0  0  0  0  0  0  0  0  0  0
   12.6070   -6.2930   -1.0280 H   0  0  0  0  0  0  0  0  0  0  0  0
   11.7170   -6.2930    0.5140 H   0  0  0  0  0  0  0  0  0  0  0  0
   13.4970   -6.2930    0.5140 H   0  0  0  0  0  0  0  0  0  0  0  0
  1  2  1  0  0  0  0
  1 10  1  0  0  0  0
  1 11  1  0  0  0  0
  2  3  1  0  0  0  0
  2 12  1  0  0  0  0
  2 13  1  0  0  0  0
  3  4  1  0  0  0  0
  3 14  1  0  0  0  0
  3 15  1  0  0  0  0
  4  5  1  0  0  0  0
  4 16  1  0  0  0  0
  4 17  1  0  0  0  0
  5  6  1  0  0  0  0
  5  9  1  0  0  0  0
  5 18  1  0  0  0  0
  6  7  1  0  0  0  0
  6 19  1  0  0  0  0
  6 20  1  0  0  0  0
  7  8  1  0  0  0  0
  7 21  1  0  0  0  0
  7 22  1  0  0  0  0
  8 23  1  0  0  0  0
  8 24  1  0  0  0  0
  8 25  1  0  0  0  0
  9 26  1  0  0  0  0
  9 27  1  0  0  0  0
  9 28  1  0  0  0  0
M  CHG  1   5   1
M  END
