5v9o_1.pdb
  MOE2019           3D

 34 33  0  0  0  0  0  0  0  0999 V2000
    6.4830    3.5750    0.0000 N   0  0  0  0  0  0  0  0  0  0  0  0
    7.7820    4.3250    0.0000 C   0  0  0  0  0  0  0  0  0  0  0  0
    9.0810    3.5750    0.0000 C   0  0  0  0  0  0  0  0  0  0  0  0
   10.3800    4.3250    0.0000 C   0  0  0  0  0  0  0  0  0  0  0  0
   10.3800    5.8250    0.0000 O   0  0  0  0  0  0  0  0  0  0  0  0
   11.6790    3.5750    0.0000 N   0  0  0  0  0  0  0  0  0  0  0  0
   12.9780    4.3250    0.0000 C   0  0  0  0  0  0  0  0  0  0  0  0
   14.2770    3.5750    0.0000 C   0  0  0  0  0  0  0  0  0  0  0  0
   15.5770    4.3250    0.0000 O   0  0  0  0  0  0  0  0  0  0  0  0
   16.8760    3.5750    0.0000 C   0  0  0  0  0  0  0  0  0  0  0  0
   18.1750    4.3250    0.0000 C   0  0  0  0  0  0  0  0  0  0  0  0
   19.4740    3.5750    0.0000 O   0  0  0  0  0  0  0  0  0  0  0  0
   20.7730    4.3250    0.0000 C   0  0  0  0  0  0  0  0  0  0  0  0
   22.0720    3.5750    0.0000 C   0  0  0  0  0  0  0  0  0  0  0  0
    6.4830    2.5650    0.0000 H   0  0  0  0  0  0  0  0  0  0  0  0
    5.6080    4.0800    0.0000 H   0  0  0  0  0  0  0  0  0  0  0  0
    7.7820    4.9540    0.8900 H   0  0  0  0  0  0  0  0  0  0  0  0
    7.7820    4.9540   -0.8900 H   0  0  0  0  0  0  0  0  0  0  0  0
    9.0810    2.9460   -0.8900 H   0  0  0  0  0  0  0  0  0  0  0  0
    9.0810    2.9460    0.8900 H   0  0  0  0  0  0  0  0  0  0  0  0
   11.6790    2.5650    0.0000 H   0  0  0  0  0  0  0  0  0  0  0  0
   12.9780    4.9540    0.8900 H   0  0  0  0  0  0  0  0  0  0  0  0
   12.9780    4.9540   -0.8900 H   0  0  0  0  0  0  0  0  0  0  0  0
   14.2770    2.9460   -0.8900 H   0  0  0  0  0  0  0  0  0  0  0  0
   14.2770    2.9460    0.8900 H   0  0  0  0  0  0  0  0  0  0  0  0
   16.8760    2.9460   -0.8900 H   0  0  0  0  0  0  0  0  0  0  0  0
   16.8760    2.9460    0.8900 H   0  0  0  0  0  0  0  0  0  0  0  0
   18.1750    4.9540    0.8900 H   0  0  0  0  0  0  0  0  0  0  0  0
   18.1750    4.9540   -0.8900 H   0  0  0  0  0  0  0  0  0  0  0  0
   20.7730    4.9540    0.8900 H   0  0  0  0  0  0  0  0  0  0  0  0
   20.7730    4.9540   -0.8900 H   0  0  0  0  0  0  0  0  0  0  0  0
   22.0720    2.9460   -0.8900 H   0  0  0  0  0  0  0  0  0  0  0  0
   22.9420    4.2320    0.0000 H   0  0  0  0  0  0  0  0  0  0  0  0
   22.0720    2.9460    0.8900 H   0  0  0  0  0  0  0  0  0  0  0  0
  1  2  1  0  0  0  0
  1 15  1  0  0  0  0
  1 16  1  0  0  0  0
  2  3  1  0  0  0  0
  2 17  1  0  0  0  0
  2 18  1  0  0  0  0
  3  4  1  0  0  0  0
  3 19  1  0  0  0  0
  3 20  1  0  0  0  0
  4  5  2  0  0  0  0
  4  6  1  0  0  0  0
  6  7  1  0  0  0  0
  6 21  1  0  0  0  0
  7  8  1  0  0  0  0
  7 22  1  0  0  0  0
  7 23  1  0  0  0  0
  8  9  1  0  0  0  0
  8 24  1  0  0  0  0
  8 25  1  0  0  0  0
  9 10  1  0  0  0  0
 10 11  1  0  0  0  0
 10 26  1  0  0  0  0
 10 27  1  0  0  0  0
 11 12  1  0  0  0  0
 11 28  1  0  0  0  0
 11 29  1  0  0  0  0
 12 13  1  0  0  0  0
 13 14  1  0  0  0  0
 13 30  1  0  0  0  0
 13 31  1  0  0  0  0
 14 32  1  0  0  0  0
 14 33  1  0  0  0  0
 14 34  1  0  0  0  0
M  END
