5v9o_9.pdb
  MOE2019           3D

 40 39  0  0  0  0  0  0  0  0999 V2000
    6.2850   -6.0360    0.0000 N   0  0  0  0  0  0  0  0  0  0  0  0
    7.5840   -5.2860    0.0000 C   0  0  0  0  0  0  0  0  0  0  0  0
    8.8830   -6.0360    0.0000 C   0  0  0  0  0  0  0  0  0  0  0  0
   10.1820   -5.2860    0.0000 C   0  0  0  0  0  0  0  0  0  0  0  0
   11.4810   -6.0360    0.0000 C   0  0  0  0  0  0  0  0  0  0  0  0
   12.7800   -5.2860    0.0000 C   0  0  0  0  0  0  0  0  0  0  0  0
   14.0790   -6.0360    0.0000 C   0  0  0  0  0  0  0  0  0  0  0  0
   15.3780   -5.2860    0.0000 C   0  0  0  0  0  0  0  0  0  0  0  0
   16.6770   -6.0360    0.0000 C   0  0  0  0  0  0  0  0  0  0  0  0
   17.9760   -5.2860    0.0000 C   0  0  0  0  0  0  0  0  0  0  0  0
   19.2750   -6.0360    0.0000 C   0  0  0  0  0  0  0  0  0  0  0  0
   20.5740   -5.2860    0.0000 C   0  0  0  0  0  0  0  0  0  0  0  0
   21.8730   -6.0360    0.0000 C   0  0  0  0  0  0  0  0  0  0  0  0
    6.2850   -7.0460    0.0000 H   0  0  0  0  0  0  0  0  0  0  0  0
    5.4100   -5.5310    0.0000 H   0  0  0  0  0  0  0  0  0  0  0  0
    7.5840   -4.6570    0.8900 H   0  0  0  0  0  0  0  0  0  0  0  0
    7.5840   -4.6570   -0.8900 H   0  0  0  0  0  0  0  0  0  0  0  0
    8.8830   -6.6650   -0.8900 H   0  0  0  0  0  0  0  0  0  0  0  0
    8.8830   -6.6650    0.8900 H   0  0  0  0  0  0  0  0  0  0  0  0
   10.1820   -4.6570    0.8900 H   0  0  0  0  0  0  0  0  0  0  0  0
   10.1820   -4.6570   -0.8900 H   0  0  0  0  0  0  0  0  0  0  0  0
   11.4810   -6.6650   -0.8900 H   0  0  0  0  0  0  0  0  0  0  0  0
   11.4810   -6.6650    0.8900 H   0  0  0  0  0  0  0  0  0  0  0  0
   12.7800   -4.6570    0.8900 H   0  0  0  0  0  0  0  0  0  0  0  0
   12.7800   -4.6570   -0.8900 H   0  0  0  0  0  0  0  0  0  0  0  0
   14.0790   -6.6650   -0.8900 H   0  0  0  0  0  0  0  0  0  0  0  0
   14.0790   -6.6650    0.8900 H   0  0  0  0  0  0  0  0  0  0  0  0
   15.3780   -4.6570    0.8900 H   0  0  0  0  0  0  0  0  0  0  0  0
   15.3780   -4.6570   -0.8900 H   0  0  0  0  0  0  0  0  0  0  0  0
   16.6770   -6.6650   -0.8900 H   0  0  0  0  0  0  0  0  0  0  0  0
   16.6770   -6.6650    0.8900 H   0  0  0  0  0  0  0  0  0  0  0  0
   17.9760   -4.6570    0.8900 H   0  0  0  0  0  0  0  0  0  0  0  0
   17.9760   -4.6570   -0.8900 H   0  0  0  0  0  0  0  0  0  0  0  0
   19.2750   -6.6650   -0.8900 H   0  0  0  0  0  0  0  0  0  0  0  0
   19.2750   -6.6650    0.8900 H   0  0  0  0  0  0  0  0  0  0  0  0
   20.5740   -4.6570    0.8900 H   0  0  0  0  0  0  0  0  0  0  0  0
   20.5740   -4.6570   -0.8900 H   0  0  0  0  0  0  0  0  0  0  0  0
   21.8730   -6.6650   -0.8900 H   0  0  0  0  0  0  0  0  0  0  0  0
   22.7430   -5.3790    0.0000 H   0  0  0  0  0  0  0  0  0  0  0  0
   21.8730   -6.6650    0.8900 H   0  0  0  0  0  0  0  0  0  0  0  0
  1  2  1  0  0  0  0
  1 14  1  0  0  0  0
  1 15  1  0  0  0  0
  2  3  1  0  0  0  0
  2 16  1  0  0  0  0
  2 17  1  0  0  0  0
  3  4  1  0  0  0  0
  3 18  1  0  0  0  0
  3 19  1  0  0  0  0
  4  5  1  0  0  0  0
  4 20  1  0  0  0  0
  4 21  1  0  0  0  0
  5  6  1  0  0  0  0
  5 22  1  0  0  0  0
  5 23  1  0  0  0  0
  6  7  1  0  0  0  0
  6 24  1  0  0  0  0
  6 25  1  0  0  0  0
  7  8  1  0  0  0  0
  7 26  1  0  0  0  0
  7 27  1  0  0  0  0
  8  9  1  0  0  0  0
  8 28  1  0  0  0  0
  8 29  1  0  0  0  0
  9 10  1  0  0  0  0
  9 30  1  0  0  0  0
  9 31  1  0  0  0  0
 10 11  1  0  0  0  0
 10 32  1  0  0  0  0
 10 33  1  0  0  0  0
 11 12  1  0  0  0  0
 11 34  1  0  0  0  0
 11 35  1  0  0  0  0
 12 13  1  0  0  0  0
 12 36  1  0  0  0  0
 12 37  1  0  0  0  0
 13 38  1  0  0  0  0
 13 39  1  0  0  0  0
 13 40  1  0  0  0  0
M  END
