5vbp_26.pdb
  MOE2019           3D

 10  9  0  0  0  0  0  0  0  0999 V2000
   -2.8950   -4.1620    0.0000 C   0  0  0  0  0  0  0  0  0  0  0  0
   -1.9680   -4.6860    0.0000 H   0  0  0  0  0  0  0  0  0  0  0  0
   -4.2010   -3.4240    0.0000 C   0  0  0  0  0  0  0  0  0  0  0  0
   -5.5070   -2.6860    0.0000 C   0  0  0  0  0  0  0  0  0  0  0  0
   -6.7990   -3.4480    0.0000 C   0  0  0  0  0  0  0  0  0  0  0  0
   -5.5130   -2.0570   -0.8900 H   0  0  0  0  0  0  0  0  0  0  0  0
   -5.5130   -2.0570    0.8900 H   0  0  0  0  0  0  0  0  0  0  0  0
   -6.7930   -4.0770    0.8900 H   0  0  0  0  0  0  0  0  0  0  0  0
   -7.6750   -2.7990    0.0000 H   0  0  0  0  0  0  0  0  0  0  0  0
   -6.7930   -4.0770   -0.8900 H   0  0  0  0  0  0  0  0  0  0  0  0
  1  2  1  0  0  0  0
  1  3  3  0  0  0  0
  3  4  1  0  0  0  0
  4  5  1  0  0  0  0
  4  6  1  0  0  0  0
  4  7  1  0  0  0  0
  5  8  1  0  0  0  0
  5  9  1  0  0  0  0
  5 10  1  0  0  0  0
M  END
