5vbp_27.pdb
  MOE2019           3D

 19 18  0  0  0  0  0  0  0  0999 V2000
    6.5430   -6.5430    0.0000 O   0  0  0  0  0  0  0  0  0  0  0  0
    6.5430   -5.0430    0.0000 C   0  0  0  0  0  0  0  0  0  0  0  0
    7.8430   -4.2930    0.0000 N   0  0  0  0  0  0  0  0  0  0  0  0
    5.2440   -4.2930    0.0000 C   0  0  0  0  0  0  0  0  0  0  0  0
    3.9450   -5.0430    0.0000 C   0  0  0  0  0  0  0  0  0  0  0  0
    2.6460   -4.2930    0.0000 N   0  0  0  0  0  0  0  0  0  0  0  0
    1.3470   -5.0430    0.0000 C   0  0  0  0  0  0  0  0  0  0  0  0
    1.3470   -6.5430    0.0000 O   0  0  0  0  0  0  0  0  0  0  0  0
    0.0480   -4.2930    0.0000 C   0  0  0  0  0  0  0  0  0  0  0  0
    7.8430   -3.2830    0.0000 H   0  0  0  0  0  0  0  0  0  0  0  0
    8.7180   -4.7980    0.0000 H   0  0  0  0  0  0  0  0  0  0  0  0
    5.2440   -3.6640   -0.8900 H   0  0  0  0  0  0  0  0  0  0  0  0
    5.2440   -3.6640    0.8900 H   0  0  0  0  0  0  0  0  0  0  0  0
    3.9450   -5.6720    0.8900 H   0  0  0  0  0  0  0  0  0  0  0  0
    3.9450   -5.6720   -0.8900 H   0  0  0  0  0  0  0  0  0  0  0  0
    2.6460   -3.2830    0.0000 H   0  0  0  0  0  0  0  0  0  0  0  0
    0.0480   -3.6640   -0.8900 H   0  0  0  0  0  0  0  0  0  0  0  0
   -0.8220   -4.9500    0.0000 H   0  0  0  0  0  0  0  0  0  0  0  0
    0.0480   -3.6640    0.8900 H   0  0  0  0  0  0  0  0  0  0  0  0
  1  2  2  0  0  0  0
  2  3  1  0  0  0  0
  2  4  1  0  0  0  0
  3 10  1  0  0  0  0
  3 11  1  0  0  0  0
  4  5  1  0  0  0  0
  4 12  1  0  0  0  0
  4 13  1  0  0  0  0
  5  6  1  0  0  0  0
  5 14  1  0  0  0  0
  5 15  1  0  0  0  0
  6  7  1  0  0  0  0
  6 16  1  0  0  0  0
  7  8  2  0  0  0  0
  7  9  1  0  0  0  0
  9 17  1  0  0  0  0
  9 18  1  0  0  0  0
  9 19  1  0  0  0  0
M  END
