5vbp_9.pdb
  MOE2019           3D

 32 32  0  0  0  0  0  0  0  0999 V2000
   -3.9280  -11.3200    0.0000 C   0  0  0  0  0  0  0  0  0  0  0  0
   -3.0660  -12.5470    0.0000 C   0  0  0  0  0  0  0  0  0  0  0  0
   -1.5720  -12.4150    0.0000 N   0  0  0  0  0  0  0  0  0  0  0  0
   -0.8010  -11.1280    0.0000 N   0  0  0  0  0  0  0  0  0  0  0  0
    0.6610  -11.4640    0.0000 N   0  0  0  0  0  0  0  0  0  0  0  0
    0.7940  -12.9580    0.0000 C   0  0  0  0  0  0  0  0  0  0  0  0
    2.0800  -13.7290    0.0000 C   0  0  0  0  0  0  0  0  0  0  0  0
    3.3910  -13.0010    0.0000 O   0  0  0  0  0  0  0  0  0  0  0  0
    4.6780  -13.7720    0.0000 C   0  0  0  0  0  0  0  0  0  0  0  0
    5.9890  -13.0430    0.0000 C   0  0  0  0  0  0  0  0  0  0  0  0
    7.2760  -13.8140    0.0000 O   0  0  0  0  0  0  0  0  0  0  0  0
    8.5870  -13.0850    0.0000 C   0  0  0  0  0  0  0  0  0  0  0  0
    9.8740  -13.8560    0.0000 C   0  0  0  0  0  0  0  0  0  0  0  0
   11.1850  -13.1270    0.0000 O   0  0  0  0  0  0  0  0  0  0  0  0
   11.8830  -13.7860    0.0000 H   0  0  0  0  0  0  0  0  0  0  0  0
   -0.5860  -13.5460    0.0000 C   0  0  0  0  0  0  0  0  0  0  0  0
   -3.6630  -10.7490   -0.8900 H   0  0  0  0  0  0  0  0  0  0  0  0
   -3.6630  -10.7490    0.8900 H   0  0  0  0  0  0  0  0  0  0  0  0
   -4.9930  -11.5500    0.0000 H   0  0  0  0  0  0  0  0  0  0  0  0
   -3.3310  -13.1180   -0.8900 H   0  0  0  0  0  0  0  0  0  0  0  0
   -3.3310  -13.1180    0.8900 H   0  0  0  0  0  0  0  0  0  0  0  0
    2.0700  -14.3580   -0.8900 H   0  0  0  0  0  0  0  0  0  0  0  0
    2.0700  -14.3580    0.8900 H   0  0  0  0  0  0  0  0  0  0  0  0
    4.6680  -14.4010    0.8900 H   0  0  0  0  0  0  0  0  0  0  0  0
    4.6680  -14.4010   -0.8900 H   0  0  0  0  0  0  0  0  0  0  0  0
    5.9990  -12.4140    0.8900 H   0  0  0  0  0  0  0  0  0  0  0  0
    5.9990  -12.4140   -0.8900 H   0  0  0  0  0  0  0  0  0  0  0  0
    8.5970  -12.4560   -0.8900 H   0  0  0  0  0  0  0  0  0  0  0  0
    8.5970  -12.4560    0.8900 H   0  0  0  0  0  0  0  0  0  0  0  0
    9.8640  -14.4850   -0.8900 H   0  0  0  0  0  0  0  0  0  0  0  0
    9.8640  -14.4850    0.8900 H   0  0  0  0  0  0  0  0  0  0  0  0
   -0.8270  -14.5990    0.0000 H   0  0  0  0  0  0  0  0  0  0  0  0
  1  2  1  0  0  0  0
  1 17  1  0  0  0  0
  1 18  1  0  0  0  0
  1 19  1  0  0  0  0
  2  3  1  0  0  0  0
  2 20  1  0  0  0  0
  2 21  1  0  0  0  0
  3  4  1  0  0  0  0
  3 16  1  0  0  0  0
  4  5  2  0  0  0  0
  5  6  1  0  0  0  0
  6  7  1  0  0  0  0
  6 16  2  0  0  0  0
  7  8  1  0  0  0  0
  7 22  1  0  0  0  0
  7 23  1  0  0  0  0
  8  9  1  0  0  0  0
  9 10  1  0  0  0  0
  9 24  1  0  0  0  0
  9 25  1  0  0  0  0
 10 11  1  0  0  0  0
 10 26  1  0  0  0  0
 10 27  1  0  0  0  0
 11 12  1  0  0  0  0
 12 13  1  0  0  0  0
 12 28  1  0  0  0  0
 12 29  1  0  0  0  0
 13 14  1  0  0  0  0
 13 30  1  0  0  0  0
 13 31  1  0  0  0  0
 14 15  1  0  0  0  0
 16 32  1  0  0  0  0
M  END
