5vbp_8.pdb
  MOE2019           3D

 25 25  0  0  0  0  0  0  0  0999 V2000
    3.0510    9.9340    0.0000 C   0  0  0  0  0  0  0  0  0  0  0  0
    4.4100    9.2990    0.0000 C   0  0  0  0  0  0  0  0  0  0  0  0
    5.6390   10.1590    0.0000 N   0  0  0  0  0  0  0  0  0  0  0  0
    5.6660   11.6590    0.0000 N   0  0  0  0  0  0  0  0  0  0  0  0
    7.1010   12.0970    0.0000 N   0  0  0  0  0  0  0  0  0  0  0  0
    7.9600   10.8680    0.0000 C   0  0  0  0  0  0  0  0  0  0  0  0
    9.4600   10.8410    0.0000 C   0  0  0  0  0  0  0  0  0  0  0  0
   10.1870    9.5290    0.0000 O   0  0  0  0  0  0  0  0  0  0  0  0
   11.6870    9.5020    0.0000 C   0  0  0  0  0  0  0  0  0  0  0  0
   12.4130    8.1900    0.0000 C   0  0  0  0  0  0  0  0  0  0  0  0
   13.9130    8.1630    0.0000 O   0  0  0  0  0  0  0  0  0  0  0  0
   14.1870    7.2430    0.0000 H   0  0  0  0  0  0  0  0  0  0  0  0
    7.0570    9.6700    0.0000 C   0  0  0  0  0  0  0  0  0  0  0  0
    2.9960   10.5610   -0.8900 H   0  0  0  0  0  0  0  0  0  0  0  0
    2.9960   10.5610    0.8900 H   0  0  0  0  0  0  0  0  0  0  0  0
    2.2420    9.2030    0.0000 H   0  0  0  0  0  0  0  0  0  0  0  0
    4.4650    8.6720   -0.8900 H   0  0  0  0  0  0  0  0  0  0  0  0
    4.4650    8.6720    0.8900 H   0  0  0  0  0  0  0  0  0  0  0  0
    9.7840   11.3800    0.8900 H   0  0  0  0  0  0  0  0  0  0  0  0
    9.7840   11.3800   -0.8900 H   0  0  0  0  0  0  0  0  0  0  0  0
   12.0110   10.0410   -0.8900 H   0  0  0  0  0  0  0  0  0  0  0  0
   12.0110   10.0410    0.8900 H   0  0  0  0  0  0  0  0  0  0  0  0
   12.0890    7.6510   -0.8900 H   0  0  0  0  0  0  0  0  0  0  0  0
   12.0890    7.6510    0.8900 H   0  0  0  0  0  0  0  0  0  0  0  0
    7.3720    8.6370    0.0000 H   0  0  0  0  0  0  0  0  0  0  0  0
  1  2  1  0  0  0  0
  1 14  1  0  0  0  0
  1 15  1  0  0  0  0
  1 16  1  0  0  0  0
  2  3  1  0  0  0  0
  2 17  1  0  0  0  0
  2 18  1  0  0  0  0
  3  4  1  0  0  0  0
  3 13  1  0  0  0  0
  4  5  2  0  0  0  0
  5  6  1  0  0  0  0
  6  7  1  0  0  0  0
  6 13  2  0  0  0  0
  7  8  1  0  0  0  0
  7 19  1  0  0  0  0
  7 20  1  0  0  0  0
  8  9  1  0  0  0  0
  9 10  1  0  0  0  0
  9 21  1  0  0  0  0
  9 22  1  0  0  0  0
 10 11  1  0  0  0  0
 10 23  1  0  0  0  0
 10 24  1  0  0  0  0
 11 12  1  0  0  0  0
 13 25  1  0  0  0  0
M  END
