5wn8_5.pdb
  MOE2019           3D

 44 43  0  0  0  0  0  0  0  0999 V2000
    3.6240   16.3830    0.0000 C   0  0  0  0  0  0  0  0  0  0  0  0
    2.3250   15.6330    0.0000 C   0  0  0  0  0  0  0  0  0  0  0  0
    1.0260   16.3830    0.0000 O   0  0  0  0  0  0  0  0  0  0  0  0
   -0.2730   15.6330    0.0000 C   0  0  0  0  0  0  0  0  0  0  0  0
   -1.5720   16.3830    0.0000 C   0  0  0  0  0  0  0  0  0  0  0  0
   -2.8720   15.6330    0.0000 O   0  0  0  0  0  0  0  0  0  0  0  0
   -4.1710   16.3830    0.0000 C   0  0  0  0  0  0  0  0  0  0  0  0
   -5.4700   15.6330    0.0000 C   0  0  0  0  0  0  0  0  0  0  0  0
   -6.7690   16.3830    0.0000 O   0  0  0  0  0  0  0  0  0  0  0  0
   -8.0680   15.6330    0.0000 C   0  0  0  0  0  0  0  0  0  0  0  0
   -9.3670   16.3830    0.0000 C   0  0  0  0  0  0  0  0  0  0  0  0
  -10.6660   15.6330    0.0000 O   0  0  0  0  0  0  0  0  0  0  0  0
  -11.9650   16.3830    0.0000 C   0  0  0  0  0  0  0  0  0  0  0  0
  -13.2640   15.6330    0.0000 C   0  0  0  0  0  0  0  0  0  0  0  0
  -14.5630   16.3830    0.0000 O   0  0  0  0  0  0  0  0  0  0  0  0
  -15.8620   15.6330    0.0000 C   0  0  0  0  0  0  0  0  0  0  0  0
  -17.1610   16.3830    0.0000 C   0  0  0  0  0  0  0  0  0  0  0  0
  -17.1610   17.8830    0.0000 O   0  0  0  0  0  0  0  0  0  0  0  0
  -18.4600   15.6330    0.0000 N   0  0  0  0  0  0  0  0  0  0  0  0
    3.6240   17.0120   -0.8900 H   0  0  0  0  0  0  0  0  0  0  0  0
    4.4940   15.7260    0.0000 H   0  0  0  0  0  0  0  0  0  0  0  0
    3.6240   17.0120    0.8900 H   0  0  0  0  0  0  0  0  0  0  0  0
    2.3250   15.0040    0.8900 H   0  0  0  0  0  0  0  0  0  0  0  0
    2.3250   15.0040   -0.8900 H   0  0  0  0  0  0  0  0  0  0  0  0
   -0.2730   15.0040    0.8900 H   0  0  0  0  0  0  0  0  0  0  0  0
   -0.2730   15.0040   -0.8900 H   0  0  0  0  0  0  0  0  0  0  0  0
   -1.5720   17.0120   -0.8900 H   0  0  0  0  0  0  0  0  0  0  0  0
   -1.5720   17.0120    0.8900 H   0  0  0  0  0  0  0  0  0  0  0  0
   -4.1710   17.0120   -0.8900 H   0  0  0  0  0  0  0  0  0  0  0  0
   -4.1710   17.0120    0.8900 H   0  0  0  0  0  0  0  0  0  0  0  0
   -5.4700   15.0040    0.8900 H   0  0  0  0  0  0  0  0  0  0  0  0
   -5.4700   15.0040   -0.8900 H   0  0  0  0  0  0  0  0  0  0  0  0
   -8.0680   15.0040    0.8900 H   0  0  0  0  0  0  0  0  0  0  0  0
   -8.0680   15.0040   -0.8900 H   0  0  0  0  0  0  0  0  0  0  0  0
   -9.3670   17.0120   -0.8900 H   0  0  0  0  0  0  0  0  0  0  0  0
   -9.3670   17.0120    0.8900 H   0  0  0  0  0  0  0  0  0  0  0  0
  -11.9650   17.0120   -0.8900 H   0  0  0  0  0  0  0  0  0  0  0  0
  -11.9650   17.0120    0.8900 H   0  0  0  0  0  0  0  0  0  0  0  0
  -13.2640   15.0040    0.8900 H   0  0  0  0  0  0  0  0  0  0  0  0
  -13.2640   15.0040   -0.8900 H   0  0  0  0  0  0  0  0  0  0  0  0
  -15.8620   15.0040    0.8900 H   0  0  0  0  0  0  0  0  0  0  0  0
  -15.8620   15.0040   -0.8900 H   0  0  0  0  0  0  0  0  0  0  0  0
  -19.3350   16.1380    0.0000 H   0  0  0  0  0  0  0  0  0  0  0  0
  -18.4600   14.6230    0.0000 H   0  0  0  0  0  0  0  0  0  0  0  0
  1  2  1  0  0  0  0
  1 20  1  0  0  0  0
  1 21  1  0  0  0  0
  1 22  1  0  0  0  0
  2  3  1  0  0  0  0
  2 23  1  0  0  0  0
  2 24  1  0  0  0  0
  3  4  1  0  0  0  0
  4  5  1  0  0  0  0
  4 25  1  0  0  0  0
  4 26  1  0  0  0  0
  5  6  1  0  0  0  0
  5 27  1  0  0  0  0
  5 28  1  0  0  0  0
  6  7  1  0  0  0  0
  7  8  1  0  0  0  0
  7 29  1  0  0  0  0
  7 30  1  0  0  0  0
  8  9  1  0  0  0  0
  8 31  1  0  0  0  0
  8 32  1  0  0  0  0
  9 10  1  0  0  0  0
 10 11  1  0  0  0  0
 10 33  1  0  0  0  0
 10 34  1  0  0  0  0
 11 12  1  0  0  0  0
 11 35  1  0  0  0  0
 11 36  1  0  0  0  0
 12 13  1  0  0  0  0
 13 14  1  0  0  0  0
 13 37  1  0  0  0  0
 13 38  1  0  0  0  0
 14 15  1  0  0  0  0
 14 39  1  0  0  0  0
 14 40  1  0  0  0  0
 15 16  1  0  0  0  0
 16 17  1  0  0  0  0
 16 41  1  0  0  0  0
 16 42  1  0  0  0  0
 17 18  2  0  0  0  0
 17 19  1  0  0  0  0
 19 43  1  0  0  0  0
 19 44  1  0  0  0  0
M  END
