5wn8_6.pdb
  MOE2019           3D

 58 57  0  0  0  0  0  0  0  0999 V2000
   40.4330    2.8230    0.0000 C   0  0  0  0  0  0  0  0  0  0  0  0
   39.1340    2.0730    0.0000 C   0  0  0  0  0  0  0  0  0  0  0  0
   37.8340    2.8230    0.0000 O   0  0  0  0  0  0  0  0  0  0  0  0
   36.5350    2.0730    0.0000 C   0  0  0  0  0  0  0  0  0  0  0  0
   35.2360    2.8230    0.0000 C   0  0  0  0  0  0  0  0  0  0  0  0
   33.9370    2.0730    0.0000 O   0  0  0  0  0  0  0  0  0  0  0  0
   32.6380    2.8230    0.0000 C   0  0  0  0  0  0  0  0  0  0  0  0
   31.3390    2.0730    0.0000 C   0  0  0  0  0  0  0  0  0  0  0  0
   30.0400    2.8230    0.0000 O   0  0  0  0  0  0  0  0  0  0  0  0
   28.7410    2.0730    0.0000 C   0  0  0  0  0  0  0  0  0  0  0  0
   27.4420    2.8230    0.0000 C   0  0  0  0  0  0  0  0  0  0  0  0
   26.1430    2.0730    0.0000 O   0  0  0  0  0  0  0  0  0  0  0  0
   24.8440    2.8230    0.0000 C   0  0  0  0  0  0  0  0  0  0  0  0
   23.5450    2.0730    0.0000 C   0  0  0  0  0  0  0  0  0  0  0  0
   22.2460    2.8230    0.0000 O   0  0  0  0  0  0  0  0  0  0  0  0
   20.9470    2.0730    0.0000 C   0  0  0  0  0  0  0  0  0  0  0  0
   19.6480    2.8230    0.0000 C   0  0  0  0  0  0  0  0  0  0  0  0
   18.3490    2.0730    0.0000 O   0  0  0  0  0  0  0  0  0  0  0  0
   17.0500    2.8230    0.0000 C   0  0  0  0  0  0  0  0  0  0  0  0
   15.7510    2.0730    0.0000 C   0  0  0  0  0  0  0  0  0  0  0  0
   14.4520    2.8230    0.0000 O   0  0  0  0  0  0  0  0  0  0  0  0
   13.1530    2.0730    0.0000 C   0  0  0  0  0  0  0  0  0  0  0  0
   11.8540    2.8230    0.0000 C   0  0  0  0  0  0  0  0  0  0  0  0
   11.8540    4.3230    0.0000 O   0  0  0  0  0  0  0  0  0  0  0  0
   10.5550    2.0730    0.0000 N   0  0  0  0  0  0  0  0  0  0  0  0
   40.4330    3.4520   -0.8900 H   0  0  0  0  0  0  0  0  0  0  0  0
   41.3030    2.1660    0.0000 H   0  0  0  0  0  0  0  0  0  0  0  0
   40.4330    3.4520    0.8900 H   0  0  0  0  0  0  0  0  0  0  0  0
   39.1340    1.4440    0.8900 H   0  0  0  0  0  0  0  0  0  0  0  0
   39.1340    1.4440   -0.8900 H   0  0  0  0  0  0  0  0  0  0  0  0
   36.5350    1.4440    0.8900 H   0  0  0  0  0  0  0  0  0  0  0  0
   36.5350    1.4440   -0.8900 H   0  0  0  0  0  0  0  0  0  0  0  0
   35.2360    3.4520   -0.8900 H   0  0  0  0  0  0  0  0  0  0  0  0
   35.2360    3.4520    0.8900 H   0  0  0  0  0  0  0  0  0  0  0  0
   32.6380    3.4520   -0.8900 H   0  0  0  0  0  0  0  0  0  0  0  0
   32.6380    3.4520    0.8900 H   0  0  0  0  0  0  0  0  0  0  0  0
   31.3390    1.4440    0.8900 H   0  0  0  0  0  0  0  0  0  0  0  0
   31.3390    1.4440   -0.8900 H   0  0  0  0  0  0  0  0  0  0  0  0
   28.7410    1.4440    0.8900 H   0  0  0  0  0  0  0  0  0  0  0  0
   28.7410    1.4440   -0.8900 H   0  0  0  0  0  0  0  0  0  0  0  0
   27.4420    3.4520   -0.8900 H   0  0  0  0  0  0  0  0  0  0  0  0
   27.4420    3.4520    0.8900 H   0  0  0  0  0  0  0  0  0  0  0  0
   24.8440    3.4520   -0.8900 H   0  0  0  0  0  0  0  0  0  0  0  0
   24.8440    3.4520    0.8900 H   0  0  0  0  0  0  0  0  0  0  0  0
   23.5450    1.4440    0.8900 H   0  0  0  0  0  0  0  0  0  0  0  0
   23.5450    1.4440   -0.8900 H   0  0  0  0  0  0  0  0  0  0  0  0
   20.9470    1.4440    0.8900 H   0  0  0  0  0  0  0  0  0  0  0  0
   20.9470    1.4440   -0.8900 H   0  0  0  0  0  0  0  0  0  0  0  0
   19.6480    3.4520   -0.8900 H   0  0  0  0  0  0  0  0  0  0  0  0
   19.6480    3.4520    0.8900 H   0  0  0  0  0  0  0  0  0  0  0  0
   17.0500    3.4520   -0.8900 H   0  0  0  0  0  0  0  0  0  0  0  0
   17.0500    3.4520    0.8900 H   0  0  0  0  0  0  0  0  0  0  0  0
   15.7510    1.4440    0.8900 H   0  0  0  0  0  0  0  0  0  0  0  0
   15.7510    1.4440   -0.8900 H   0  0  0  0  0  0  0  0  0  0  0  0
   13.1530    1.4440    0.8900 H   0  0  0  0  0  0  0  0  0  0  0  0
   13.1530    1.4440   -0.8900 H   0  0  0  0  0  0  0  0  0  0  0  0
   10.5550    1.0630    0.0000 H   0  0  0  0  0  0  0  0  0  0  0  0
    9.6800    2.5780    0.0000 H   0  0  0  0  0  0  0  0  0  0  0  0
  1  2  1  0  0  0  0
  1 26  1  0  0  0  0
  1 27  1  0  0  0  0
  1 28  1  0  0  0  0
  2  3  1  0  0  0  0
  2 29  1  0  0  0  0
  2 30  1  0  0  0  0
  3  4  1  0  0  0  0
  4  5  1  0  0  0  0
  4 31  1  0  0  0  0
  4 32  1  0  0  0  0
  5  6  1  0  0  0  0
  5 33  1  0  0  0  0
  5 34  1  0  0  0  0
  6  7  1  0  0  0  0
  7  8  1  0  0  0  0
  7 35  1  0  0  0  0
  7 36  1  0  0  0  0
  8  9  1  0  0  0  0
  8 37  1  0  0  0  0
  8 38  1  0  0  0  0
  9 10  1  0  0  0  0
 10 11  1  0  0  0  0
 10 39  1  0  0  0  0
 10 40  1  0  0  0  0
 11 12  1  0  0  0  0
 11 41  1  0  0  0  0
 11 42  1  0  0  0  0
 12 13  1  0  0  0  0
 13 14  1  0  0  0  0
 13 43  1  0  0  0  0
 13 44  1  0  0  0  0
 14 15  1  0  0  0  0
 14 45  1  0  0  0  0
 14 46  1  0  0  0  0
 15 16  1  0  0  0  0
 16 17  1  0  0  0  0
 16 47  1  0  0  0  0
 16 48  1  0  0  0  0
 17 18  1  0  0  0  0
 17 49  1  0  0  0  0
 17 50  1  0  0  0  0
 18 19  1  0  0  0  0
 19 20  1  0  0  0  0
 19 51  1  0  0  0  0
 19 52  1  0  0  0  0
 20 21  1  0  0  0  0
 20 53  1  0  0  0  0
 20 54  1  0  0  0  0
 21 22  1  0  0  0  0
 22 23  1  0  0  0  0
 22 55  1  0  0  0  0
 22 56  1  0  0  0  0
 23 24  2  0  0  0  0
 23 25  1  0  0  0  0
 25 57  1  0  0  0  0
 25 58  1  0  0  0  0
M  END
