5wn8_3.pdb
  MOE2019           3D

 37 36  0  0  0  0  0  0  0  0999 V2000
    1.8920   11.8720    0.0000 C   0  0  0  0  0  0  0  0  0  0  0  0
    0.5930   11.1220    0.0000 C   0  0  0  0  0  0  0  0  0  0  0  0
   -0.7060   11.8720    0.0000 O   0  0  0  0  0  0  0  0  0  0  0  0
   -2.0050   11.1220    0.0000 C   0  0  0  0  0  0  0  0  0  0  0  0
   -3.3040   11.8720    0.0000 C   0  0  0  0  0  0  0  0  0  0  0  0
   -4.6030   11.1220    0.0000 O   0  0  0  0  0  0  0  0  0  0  0  0
   -5.9020   11.8720    0.0000 C   0  0  0  0  0  0  0  0  0  0  0  0
   -7.2010   11.1220    0.0000 C   0  0  0  0  0  0  0  0  0  0  0  0
   -8.5000   11.8720    0.0000 O   0  0  0  0  0  0  0  0  0  0  0  0
   -9.7990   11.1220    0.0000 C   0  0  0  0  0  0  0  0  0  0  0  0
  -11.0980   11.8720    0.0000 C   0  0  0  0  0  0  0  0  0  0  0  0
  -12.3970   11.1220    0.0000 O   0  0  0  0  0  0  0  0  0  0  0  0
  -13.6960   11.8720    0.0000 C   0  0  0  0  0  0  0  0  0  0  0  0
  -14.9950   11.1220    0.0000 C   0  0  0  0  0  0  0  0  0  0  0  0
  -14.9950    9.6220    0.0000 O   0  0  0  0  0  0  0  0  0  0  0  0
  -16.2940   11.8720    0.0000 N   0  0  0  0  0  0  0  0  0  0  0  0
    1.8920   12.5010   -0.8900 H   0  0  0  0  0  0  0  0  0  0  0  0
    2.7620   11.2150    0.0000 H   0  0  0  0  0  0  0  0  0  0  0  0
    1.8920   12.5010    0.8900 H   0  0  0  0  0  0  0  0  0  0  0  0
    0.5930   10.4930    0.8900 H   0  0  0  0  0  0  0  0  0  0  0  0
    0.5930   10.4930   -0.8900 H   0  0  0  0  0  0  0  0  0  0  0  0
   -2.0050   10.4930    0.8900 H   0  0  0  0  0  0  0  0  0  0  0  0
   -2.0050   10.4930   -0.8900 H   0  0  0  0  0  0  0  0  0  0  0  0
   -3.3040   12.5010   -0.8900 H   0  0  0  0  0  0  0  0  0  0  0  0
   -3.3040   12.5010    0.8900 H   0  0  0  0  0  0  0  0  0  0  0  0
   -5.9020   12.5010   -0.8900 H   0  0  0  0  0  0  0  0  0  0  0  0
   -5.9020   12.5010    0.8900 H   0  0  0  0  0  0  0  0  0  0  0  0
   -7.2010   10.4930    0.8900 H   0  0  0  0  0  0  0  0  0  0  0  0
   -7.2010   10.4930   -0.8900 H   0  0  0  0  0  0  0  0  0  0  0  0
   -9.7990   10.4930    0.8900 H   0  0  0  0  0  0  0  0  0  0  0  0
   -9.7990   10.4930   -0.8900 H   0  0  0  0  0  0  0  0  0  0  0  0
  -11.0980   12.5010   -0.8900 H   0  0  0  0  0  0  0  0  0  0  0  0
  -11.0980   12.5010    0.8900 H   0  0  0  0  0  0  0  0  0  0  0  0
  -13.6960   12.5010   -0.8900 H   0  0  0  0  0  0  0  0  0  0  0  0
  -13.6960   12.5010    0.8900 H   0  0  0  0  0  0  0  0  0  0  0  0
  -16.2940   12.8820    0.0000 H   0  0  0  0  0  0  0  0  0  0  0  0
  -17.1690   11.3670    0.0000 H   0  0  0  0  0  0  0  0  0  0  0  0
  1  2  1  0  0  0  0
  1 17  1  0  0  0  0
  1 18  1  0  0  0  0
  1 19  1  0  0  0  0
  2  3  1  0  0  0  0
  2 20  1  0  0  0  0
  2 21  1  0  0  0  0
  3  4  1  0  0  0  0
  4  5  1  0  0  0  0
  4 22  1  0  0  0  0
  4 23  1  0  0  0  0
  5  6  1  0  0  0  0
  5 24  1  0  0  0  0
  5 25  1  0  0  0  0
  6  7  1  0  0  0  0
  7  8  1  0  0  0  0
  7 26  1  0  0  0  0
  7 27  1  0  0  0  0
  8  9  1  0  0  0  0
  8 28  1  0  0  0  0
  8 29  1  0  0  0  0
  9 10  1  0  0  0  0
 10 11  1  0  0  0  0
 10 30  1  0  0  0  0
 10 31  1  0  0  0  0
 11 12  1  0  0  0  0
 11 32  1  0  0  0  0
 11 33  1  0  0  0  0
 12 13  1  0  0  0  0
 13 14  1  0  0  0  0
 13 34  1  0  0  0  0
 13 35  1  0  0  0  0
 14 15  2  0  0  0  0
 14 16  1  0  0  0  0
 16 36  1  0  0  0  0
 16 37  1  0  0  0  0
M  END
