6mx8_9.pdb
  MOE2019           3D

 20 19  0  0  0  0  0  0  0  0999 V2000
   11.8010  -18.5310    0.0000 C   0  0  0  0  0  0  0  0  0  0  0  0
   12.5510  -17.2320    0.0000 C   0  0  0  0  0  0  0  0  0  0  0  0
   14.0510  -17.2320    0.0000 C   0  0  0  0  0  0  0  0  0  0  0  0
   14.8010  -15.9330    0.0000 C   0  0  0  0  0  0  0  0  0  0  0  0
   16.3010  -15.9330    0.0000 C   0  0  0  0  0  0  0  0  0  0  0  0
   17.0510  -14.6340    0.0000 C   0  0  0  0  0  0  0  0  0  0  0  0
   12.1160  -19.0760    0.8900 H   0  0  0  0  0  0  0  0  0  0  0  0
   10.7190  -18.3970    0.0000 H   0  0  0  0  0  0  0  0  0  0  0  0
   12.1160  -19.0760   -0.8900 H   0  0  0  0  0  0  0  0  0  0  0  0
   12.2360  -16.6870   -0.8900 H   0  0  0  0  0  0  0  0  0  0  0  0
   12.2360  -16.6870    0.8900 H   0  0  0  0  0  0  0  0  0  0  0  0
   14.3660  -17.7770    0.8900 H   0  0  0  0  0  0  0  0  0  0  0  0
   14.3660  -17.7770   -0.8900 H   0  0  0  0  0  0  0  0  0  0  0  0
   14.4860  -15.3880    0.8900 H   0  0  0  0  0  0  0  0  0  0  0  0
   14.4860  -15.3880   -0.8900 H   0  0  0  0  0  0  0  0  0  0  0  0
   16.6160  -16.4780   -0.8900 H   0  0  0  0  0  0  0  0  0  0  0  0
   16.6160  -16.4780    0.8900 H   0  0  0  0  0  0  0  0  0  0  0  0
   16.7360  -14.0890    0.8900 H   0  0  0  0  0  0  0  0  0  0  0  0
   16.7360  -14.0890   -0.8900 H   0  0  0  0  0  0  0  0  0  0  0  0
   18.1330  -14.7680    0.0000 H   0  0  0  0  0  0  0  0  0  0  0  0
  1  2  1  0  0  0  0
  1  7  1  0  0  0  0
  1  8  1  0  0  0  0
  1  9  1  0  0  0  0
  2  3  1  0  0  0  0
  2 10  1  0  0  0  0
  2 11  1  0  0  0  0
  3  4  1  0  0  0  0
  3 12  1  0  0  0  0
  3 13  1  0  0  0  0
  4  5  1  0  0  0  0
  4 14  1  0  0  0  0
  4 15  1  0  0  0  0
  5  6  1  0  0  0  0
  5 16  1  0  0  0  0
  5 17  1  0  0  0  0
  6 18  1  0  0  0  0
  6 19  1  0  0  0  0
  6 20  1  0  0  0  0
M  END
