6mx8_7.pdb
  MOE2019           3D

 14 13  0  0  0  0  0  0  0  0999 V2000
   12.8310   11.4440    0.0000 C   0  0  0  0  0  0  0  0  0  0  0  0
   13.5810   12.7430    0.0000 C   0  0  0  0  0  0  0  0  0  0  0  0
   15.0810   12.7430    0.0000 C   0  0  0  0  0  0  0  0  0  0  0  0
   15.8310   14.0420    0.0000 C   0  0  0  0  0  0  0  0  0  0  0  0
   13.1460   10.8990    0.8900 H   0  0  0  0  0  0  0  0  0  0  0  0
   11.7490   11.5780    0.0000 H   0  0  0  0  0  0  0  0  0  0  0  0
   13.1460   10.8990   -0.8900 H   0  0  0  0  0  0  0  0  0  0  0  0
   13.2660   13.2880   -0.8900 H   0  0  0  0  0  0  0  0  0  0  0  0
   13.2660   13.2880    0.8900 H   0  0  0  0  0  0  0  0  0  0  0  0
   15.3960   12.1980   -0.8900 H   0  0  0  0  0  0  0  0  0  0  0  0
   15.3960   12.1980    0.8900 H   0  0  0  0  0  0  0  0  0  0  0  0
   15.5160   14.5870    0.8900 H   0  0  0  0  0  0  0  0  0  0  0  0
   15.5160   14.5870   -0.8900 H   0  0  0  0  0  0  0  0  0  0  0  0
   16.9130   13.9080    0.0000 H   0  0  0  0  0  0  0  0  0  0  0  0
  1  2  1  0  0  0  0
  1  5  1  0  0  0  0
  1  6  1  0  0  0  0
  1  7  1  0  0  0  0
  2  3  1  0  0  0  0
  2  8  1  0  0  0  0
  2  9  1  0  0  0  0
  3  4  1  0  0  0  0
  3 10  1  0  0  0  0
  3 11  1  0  0  0  0
  4 12  1  0  0  0  0
  4 13  1  0  0  0  0
  4 14  1  0  0  0  0
M  END
