6ntu_2.pdb
  MOE2019           3D

 49 49  0  0  0  0  0  0  0  0999 V2000
  -15.8990   15.1180    0.0000 C   0  0  0  0  0  0  0  0  0  0  0  0
  -14.4010   15.2060    0.0000 C   0  0  0  0  0  0  0  0  0  0  0  0
  -13.7290   16.5460    0.0000 O   0  0  0  0  0  0  0  0  0  0  0  0
  -13.5770   13.9530    0.0000 N   0  0  0  0  0  0  0  0  0  0  0  0
  -12.0790   14.0400    0.0000 C   0  0  0  0  0  0  0  0  0  0  0  0
  -11.2550   12.7870    0.0000 C   0  0  0  0  0  0  0  0  0  0  0  0
   -9.7570   12.8750    0.0000 O   0  0  0  0  0  0  0  0  0  0  0  0
   -8.9330   11.6220    0.0000 C   0  0  0  0  0  0  0  0  0  0  0  0
   -7.4350   11.7100    0.0000 C   0  0  0  0  0  0  0  0  0  0  0  0
   -6.6100   10.4570    0.0000 O   0  0  0  0  0  0  0  0  0  0  0  0
   -5.1130   10.5450    0.0000 C   0  0  0  0  0  0  0  0  0  0  0  0
   -4.2880    9.2920    0.0000 C   0  0  0  0  0  0  0  0  0  0  0  0
   -2.7910    9.3790    0.0000 O   0  0  0  0  0  0  0  0  0  0  0  0
   -1.9660    8.1260    0.0000 C   0  0  0  0  0  0  0  0  0  0  0  0
   -0.4690    8.2140    0.0000 C   0  0  0  0  0  0  0  0  0  0  0  0
    0.2040    9.5550    0.0000 O   0  0  0  0  0  0  0  0  0  0  0  0
    1.7010    9.6420    0.0000 C   0  0  0  0  0  0  0  0  0  0  0  0
    2.3740   10.9830    0.0000 C   0  0  0  0  0  0  0  0  0  0  0  0
    3.8720   11.0710    0.0000 N   0  0  0  0  0  0  0  0  0  0  0  0
    4.6810   12.3340    0.0000 N   0  0  0  0  0  0  0  0  0  0  0  0
    6.1320   11.9540    0.0000 N   0  0  0  0  0  0  0  0  0  0  0  0
    6.2200   10.4570    0.0000 C   0  0  0  0  0  0  0  0  0  0  0  0
    7.1290    9.8740    0.0000 H   0  0  0  0  0  0  0  0  0  0  0  0
    4.8230    9.9110    0.0000 C   0  0  0  0  0  0  0  0  0  0  0  0
  -16.1810   14.5560    0.8900 H   0  0  0  0  0  0  0  0  0  0  0  0
  -16.1810   14.5560   -0.8900 H   0  0  0  0  0  0  0  0  0  0  0  0
  -16.3820   16.0950    0.0000 H   0  0  0  0  0  0  0  0  0  0  0  0
  -14.0300   13.0500    0.0000 H   0  0  0  0  0  0  0  0  0  0  0  0
  -11.7960   14.6020   -0.8900 H   0  0  0  0  0  0  0  0  0  0  0  0
  -11.7960   14.6020    0.8900 H   0  0  0  0  0  0  0  0  0  0  0  0
  -11.5370   12.2250   -0.8900 H   0  0  0  0  0  0  0  0  0  0  0  0
  -11.5370   12.2250    0.8900 H   0  0  0  0  0  0  0  0  0  0  0  0
   -9.2150   11.0600    0.8900 H   0  0  0  0  0  0  0  0  0  0  0  0
   -9.2150   11.0600   -0.8900 H   0  0  0  0  0  0  0  0  0  0  0  0
   -7.1530   12.2730    0.8900 H   0  0  0  0  0  0  0  0  0  0  0  0
   -7.1530   12.2730   -0.8900 H   0  0  0  0  0  0  0  0  0  0  0  0
   -4.8310   11.1080   -0.8900 H   0  0  0  0  0  0  0  0  0  0  0  0
   -4.8310   11.1080    0.8900 H   0  0  0  0  0  0  0  0  0  0  0  0
   -4.5700    8.7300   -0.8900 H   0  0  0  0  0  0  0  0  0  0  0  0
   -4.5700    8.7300    0.8900 H   0  0  0  0  0  0  0  0  0  0  0  0
   -2.2480    7.5630    0.8900 H   0  0  0  0  0  0  0  0  0  0  0  0
   -2.2480    7.5630   -0.8900 H   0  0  0  0  0  0  0  0  0  0  0  0
   -0.1230    7.6880   -0.8900 H   0  0  0  0  0  0  0  0  0  0  0  0
   -0.1230    7.6880    0.8900 H   0  0  0  0  0  0  0  0  0  0  0  0
    2.0470    9.1160    0.8900 H   0  0  0  0  0  0  0  0  0  0  0  0
    2.0470    9.1160   -0.8900 H   0  0  0  0  0  0  0  0  0  0  0  0
    2.0280   11.5090    0.8900 H   0  0  0  0  0  0  0  0  0  0  0  0
    2.0280   11.5090   -0.8900 H   0  0  0  0  0  0  0  0  0  0  0  0
    4.5500    8.8660    0.0000 H   0  0  0  0  0  0  0  0  0  0  0  0
  1  2  1  0  0  0  0
  1 25  1  0  0  0  0
  1 26  1  0  0  0  0
  1 27  1  0  0  0  0
  2  3  2  0  0  0  0
  2  4  1  0  0  0  0
  4  5  1  0  0  0  0
  4 28  1  0  0  0  0
  5  6  1  0  0  0  0
  5 29  1  0  0  0  0
  5 30  1  0  0  0  0
  6  7  1  0  0  0  0
  6 31  1  0  0  0  0
  6 32  1  0  0  0  0
  7  8  1  0  0  0  0
  8  9  1  0  0  0  0
  8 33  1  0  0  0  0
  8 34  1  0  0  0  0
  9 10  1  0  0  0  0
  9 35  1  0  0  0  0
  9 36  1  0  0  0  0
 10 11  1  0  0  0  0
 11 12  1  0  0  0  0
 11 37  1  0  0  0  0
 11 38  1  0  0  0  0
 12 13  1  0  0  0  0
 12 39  1  0  0  0  0
 12 40  1  0  0  0  0
 13 14  1  0  0  0  0
 14 15  1  0  0  0  0
 14 41  1  0  0  0  0
 14 42  1  0  0  0  0
 15 16  1  0  0  0  0
 15 43  1  0  0  0  0
 15 44  1  0  0  0  0
 16 17  1  0  0  0  0
 17 18  1  0  0  0  0
 17 45  1  0  0  0  0
 17 46  1  0  0  0  0
 18 19  1  0  0  0  0
 18 47  1  0  0  0  0
 18 48  1  0  0  0  0
 19 20  1  0  0  0  0
 19 24  1  0  0  0  0
 20 21  2  0  0  0  0
 21 22  1  0  0  0  0
 22 23  1  0  0  0  0
 22 24  2  0  0  0  0
 24 49  1  0  0  0  0
M  END
