6ntu_1.pdb
  MOE2019           3D

 42 42  0  0  0  0  0  0  0  0999 V2000
  -18.0920   -4.9820    0.0000 C   0  0  0  0  0  0  0  0  0  0  0  0
  -19.1710   -4.9310    0.0000 H   0  0  0  0  0  0  0  0  0  0  0  0
  -17.2690   -6.2350    0.0000 N   0  0  0  0  0  0  0  0  0  0  0  0
  -15.8220   -5.8400    0.0000 N   0  0  0  0  0  0  0  0  0  0  0  0
  -15.7510   -4.3410    0.0000 N   0  0  0  0  0  0  0  0  0  0  0  0
  -14.4970   -3.5180    0.0000 C   0  0  0  0  0  0  0  0  0  0  0  0
  -13.1570   -4.1920    0.0000 C   0  0  0  0  0  0  0  0  0  0  0  0
  -11.9030   -3.3680    0.0000 O   0  0  0  0  0  0  0  0  0  0  0  0
  -10.5630   -4.0420    0.0000 C   0  0  0  0  0  0  0  0  0  0  0  0
   -9.3100   -3.2190    0.0000 C   0  0  0  0  0  0  0  0  0  0  0  0
   -7.9700   -3.8930    0.0000 O   0  0  0  0  0  0  0  0  0  0  0  0
   -6.7160   -3.0700    0.0000 C   0  0  0  0  0  0  0  0  0  0  0  0
   -5.3760   -3.7440    0.0000 C   0  0  0  0  0  0  0  0  0  0  0  0
   -4.1220   -2.9200    0.0000 O   0  0  0  0  0  0  0  0  0  0  0  0
   -2.7820   -3.5940    0.0000 C   0  0  0  0  0  0  0  0  0  0  0  0
   -1.5280   -2.7710    0.0000 C   0  0  0  0  0  0  0  0  0  0  0  0
   -0.1880   -3.4450    0.0000 O   0  0  0  0  0  0  0  0  0  0  0  0
    1.0650   -2.6210    0.0000 C   0  0  0  0  0  0  0  0  0  0  0  0
    2.4050   -3.2950    0.0000 C   0  0  0  0  0  0  0  0  0  0  0  0
  -17.1540   -3.8110    0.0000 C   0  0  0  0  0  0  0  0  0  0  0  0
  -14.5330   -2.8900    0.8900 H   0  0  0  0  0  0  0  0  0  0  0  0
  -14.5330   -2.8900   -0.8900 H   0  0  0  0  0  0  0  0  0  0  0  0
  -13.1210   -4.8200   -0.8900 H   0  0  0  0  0  0  0  0  0  0  0  0
  -13.1210   -4.8200    0.8900 H   0  0  0  0  0  0  0  0  0  0  0  0
  -10.5270   -4.6700   -0.8900 H   0  0  0  0  0  0  0  0  0  0  0  0
  -10.5270   -4.6700    0.8900 H   0  0  0  0  0  0  0  0  0  0  0  0
   -9.3460   -2.5910    0.8900 H   0  0  0  0  0  0  0  0  0  0  0  0
   -9.3460   -2.5910   -0.8900 H   0  0  0  0  0  0  0  0  0  0  0  0
   -6.7520   -2.4420    0.8900 H   0  0  0  0  0  0  0  0  0  0  0  0
   -6.7520   -2.4420   -0.8900 H   0  0  0  0  0  0  0  0  0  0  0  0
   -5.3400   -4.3720   -0.8900 H   0  0  0  0  0  0  0  0  0  0  0  0
   -5.3400   -4.3720    0.8900 H   0  0  0  0  0  0  0  0  0  0  0  0
   -2.7460   -4.2220   -0.8900 H   0  0  0  0  0  0  0  0  0  0  0  0
   -2.7460   -4.2220    0.8900 H   0  0  0  0  0  0  0  0  0  0  0  0
   -1.5640   -2.1430    0.8900 H   0  0  0  0  0  0  0  0  0  0  0  0
   -1.5640   -2.1430   -0.8900 H   0  0  0  0  0  0  0  0  0  0  0  0
    1.0290   -1.9930    0.8900 H   0  0  0  0  0  0  0  0  0  0  0  0
    1.0290   -1.9930   -0.8900 H   0  0  0  0  0  0  0  0  0  0  0  0
    2.4410   -3.9230   -0.8900 H   0  0  0  0  0  0  0  0  0  0  0  0
    3.2360   -2.5890    0.0000 H   0  0  0  0  0  0  0  0  0  0  0  0
    2.4410   -3.9230    0.8900 H   0  0  0  0  0  0  0  0  0  0  0  0
  -17.4390   -2.7690    0.0000 H   0  0  0  0  0  0  0  0  0  0  0  0
  1  2  1  0  0  0  0
  1  3  1  0  0  0  0
  1 20  2  0  0  0  0
  3  4  2  0  0  0  0
  4  5  1  0  0  0  0
  5  6  1  0  0  0  0
  5 20  1  0  0  0  0
  6  7  1  0  0  0  0
  6 21  1  0  0  0  0
  6 22  1  0  0  0  0
  7  8  1  0  0  0  0
  7 23  1  0  0  0  0
  7 24  1  0  0  0  0
  8  9  1  0  0  0  0
  9 10  1  0  0  0  0
  9 25  1  0  0  0  0
  9 26  1  0  0  0  0
 10 11  1  0  0  0  0
 10 27  1  0  0  0  0
 10 28  1  0  0  0  0
 11 12  1  0  0  0  0
 12 13  1  0  0  0  0
 12 29  1  0  0  0  0
 12 30  1  0  0  0  0
 13 14  1  0  0  0  0
 13 31  1  0  0  0  0
 13 32  1  0  0  0  0
 14 15  1  0  0  0  0
 15 16  1  0  0  0  0
 15 33  1  0  0  0  0
 15 34  1  0  0  0  0
 16 17  1  0  0  0  0
 16 35  1  0  0  0  0
 16 36  1  0  0  0  0
 17 18  1  0  0  0  0
 18 19  1  0  0  0  0
 18 37  1  0  0  0  0
 18 38  1  0  0  0  0
 19 39  1  0  0  0  0
 19 40  1  0  0  0  0
 19 41  1  0  0  0  0
 20 42  1  0  0  0  0
M  END
