6nuq_12.pdb
  MOE2019           3D

 23 23  0  0  0  0  0  0  0  0999 V2000
   -7.8890   -4.1610    0.0000 C   0  0  0  0  0  0  0  0  0  0  0  0
   -6.6390   -4.9900    0.0000 N   0  3  0  0  0  0  0  0  0  0  0  0
   -6.7310   -6.4870    0.0000 C   0  0  0  0  0  0  0  0  0  0  0  0
   -5.4810   -7.3160    0.0000 C   0  0  0  0  0  0  0  0  0  0  0  0
   -4.1380   -6.6470    0.0000 C   0  0  0  0  0  0  0  0  0  0  0  0
   -2.8880   -7.4760    0.0000 C   0  0  0  0  0  0  0  0  0  0  0  0
   -1.6380   -8.3050    0.0000 C   0  0  0  0  0  0  0  0  0  0  0  0
   -0.7500   -8.8940    0.0000 H   0  0  0  0  0  0  0  0  0  0  0  0
   -4.0460   -5.1500    0.0000 C   0  0  0  0  0  0  0  0  0  0  0  0
   -5.2960   -4.3210    0.0000 C   0  0  0  0  0  0  0  0  0  0  0  0
   -7.8500   -3.5330    0.8900 H   0  0  0  0  0  0  0  0  0  0  0  0
   -7.8500   -3.5330   -0.8900 H   0  0  0  0  0  0  0  0  0  0  0  0
   -8.7980   -4.7630    0.0000 H   0  0  0  0  0  0  0  0  0  0  0  0
   -6.6390   -4.9900   -1.0100 H   0  0  0  0  0  0  0  0  0  0  0  0
   -7.2940   -6.7670    0.8900 H   0  0  0  0  0  0  0  0  0  0  0  0
   -7.2940   -6.7670   -0.8900 H   0  0  0  0  0  0  0  0  0  0  0  0
   -5.5200   -7.9440    0.8900 H   0  0  0  0  0  0  0  0  0  0  0  0
   -5.5200   -7.9440   -0.8900 H   0  0  0  0  0  0  0  0  0  0  0  0
   -4.1380   -6.6470    1.0900 H   0  0  0  0  0  0  0  0  0  0  0  0
   -3.4830   -4.8700   -0.8900 H   0  0  0  0  0  0  0  0  0  0  0  0
   -3.4830   -4.8700    0.8900 H   0  0  0  0  0  0  0  0  0  0  0  0
   -5.2570   -3.6930   -0.8900 H   0  0  0  0  0  0  0  0  0  0  0  0
   -5.2570   -3.6930    0.8900 H   0  0  0  0  0  0  0  0  0  0  0  0
  1  2  1  0  0  0  0
  1 11  1  0  0  0  0
  1 12  1  0  0  0  0
  1 13  1  0  0  0  0
  2  3  1  0  0  0  0
  2 10  1  0  0  0  0
  2 14  1  0  0  0  0
  3  4  1  0  0  0  0
  3 15  1  0  0  0  0
  3 16  1  0  0  0  0
  4  5  1  0  0  0  0
  4 17  1  0  0  0  0
  4 18  1  0  0  0  0
  5  6  1  0  0  0  0
  5  9  1  0  0  0  0
  5 19  1  0  0  0  0
  6  7  3  0  0  0  0
  7  8  1  0  0  0  0
  9 10  1  0  0  0  0
  9 20  1  0  0  0  0
  9 21  1  0  0  0  0
 10 22  1  0  0  0  0
 10 23  1  0  0  0  0
M  CHG  1   2   1
M  END
