6nuq_1.pdb
  MOE2019           3D

 10  9  0  0  0  0  0  0  0  0999 V2000
    2.3840   11.3620    0.0000 C   0  0  0  0  0  0  0  0  0  0  0  0
    3.6270   10.5220    0.0000 C   0  0  0  0  0  0  0  0  0  0  0  0
    4.9760   11.1790    0.0000 C   0  0  0  0  0  0  0  0  0  0  0  0
    6.3250   11.8350    0.0000 C   0  0  0  0  0  0  0  0  0  0  0  0
    7.2830   12.3010    0.0000 H   0  0  0  0  0  0  0  0  0  0  0  0
    2.4280   11.9900   -0.8900 H   0  0  0  0  0  0  0  0  0  0  0  0
    2.4280   11.9900    0.8900 H   0  0  0  0  0  0  0  0  0  0  0  0
    1.4710   10.7670    0.0000 H   0  0  0  0  0  0  0  0  0  0  0  0
    3.5830    9.8940   -0.8900 H   0  0  0  0  0  0  0  0  0  0  0  0
    3.5830    9.8940    0.8900 H   0  0  0  0  0  0  0  0  0  0  0  0
  1  2  1  0  0  0  0
  1  6  1  0  0  0  0
  1  7  1  0  0  0  0
  1  8  1  0  0  0  0
  2  3  1  0  0  0  0
  2  9  1  0  0  0  0
  2 10  1  0  0  0  0
  3  4  3  0  0  0  0
  4  5  1  0  0  0  0
M  END
