6nuq_13.pdb
  MOE2019           3D

 19 18  0  0  0  0  0  0  0  0999 V2000
    0.8860   10.7770    0.0000 C   0  0  0  0  0  0  0  0  0  0  0  0
    2.1370    9.9500    0.0000 C   0  0  0  0  0  0  0  0  0  0  0  0
    3.4790   10.6200    0.0000 C   0  0  0  0  0  0  0  0  0  0  0  0
    4.7310    9.7930    0.0000 C   0  0  0  0  0  0  0  0  0  0  0  0
    5.9820    8.9660    0.0000 C   0  0  0  0  0  0  0  0  0  0  0  0
    6.8700    8.3790    0.0000 H   0  0  0  0  0  0  0  0  0  0  0  0
    3.5700   12.1170    0.0000 C   0  0  0  0  0  0  0  0  0  0  0  0
    2.3190   12.9450    0.0000 C   0  0  0  0  0  0  0  0  0  0  0  0
    0.3230   10.4960    0.8900 H   0  0  0  0  0  0  0  0  0  0  0  0
    0.3230   10.4960   -0.8900 H   0  0  0  0  0  0  0  0  0  0  0  0
    1.0860   11.8490    0.0000 H   0  0  0  0  0  0  0  0  0  0  0  0
    2.0990    9.3220    0.8900 H   0  0  0  0  0  0  0  0  0  0  0  0
    2.0990    9.3220   -0.8900 H   0  0  0  0  0  0  0  0  0  0  0  0
    3.4790   10.6200    1.0900 H   0  0  0  0  0  0  0  0  0  0  0  0
    4.1330   12.3980   -0.8900 H   0  0  0  0  0  0  0  0  0  0  0  0
    4.1330   12.3980    0.8900 H   0  0  0  0  0  0  0  0  0  0  0  0
    2.3570   13.5730   -0.8900 H   0  0  0  0  0  0  0  0  0  0  0  0
    2.3570   13.5730    0.8900 H   0  0  0  0  0  0  0  0  0  0  0  0
    1.4110   12.3420    0.0000 H   0  0  0  0  0  0  0  0  0  0  0  0
  1  2  1  0  0  0  0
  1  9  1  0  0  0  0
  1 10  1  0  0  0  0
  1 11  1  0  0  0  0
  2  3  1  0  0  0  0
  2 12  1  0  0  0  0
  2 13  1  0  0  0  0
  3  4  1  0  0  0  0
  3  7  1  0  0  0  0
  3 14  1  0  0  0  0
  4  5  3  0  0  0  0
  5  6  1  0  0  0  0
  7  8  1  0  0  0  0
  7 15  1  0  0  0  0
  7 16  1  0  0  0  0
  8 17  1  0  0  0  0
  8 18  1  0  0  0  0
  8 19  1  0  0  0  0
M  END
