6nuq_14.pdb
  MOE2019           3D

 20 19  0  0  0  0  0  0  0  0999 V2000
    1.0680   12.6860    0.0000 C   0  0  0  0  0  0  0  0  0  0  0  0
    2.3140   11.8500    0.0000 C   0  0  0  0  0  0  0  0  0  0  0  0
    3.6600   12.5110    0.0000 C   0  0  0  0  0  0  0  0  0  0  0  0
    4.9060   11.6750    0.0000 C   0  0  0  0  0  0  0  0  0  0  0  0
    6.2530   12.3350    0.0000 C   0  0  0  0  0  0  0  0  0  0  0  0
    7.4980   11.5000    0.0000 C   0  0  0  0  0  0  0  0  0  0  0  0
    1.1100   13.3140   -0.8900 H   0  0  0  0  0  0  0  0  0  0  0  0
    1.1100   13.3140    0.8900 H   0  0  0  0  0  0  0  0  0  0  0  0
    0.1560   12.0880    0.0000 H   0  0  0  0  0  0  0  0  0  0  0  0
    2.2720   11.2220    0.8900 H   0  0  0  0  0  0  0  0  0  0  0  0
    2.2720   11.2220   -0.8900 H   0  0  0  0  0  0  0  0  0  0  0  0
    3.7020   13.1390   -0.8900 H   0  0  0  0  0  0  0  0  0  0  0  0
    3.7020   13.1390    0.8900 H   0  0  0  0  0  0  0  0  0  0  0  0
    4.8630   11.0470   -0.8900 H   0  0  0  0  0  0  0  0  0  0  0  0
    4.8630   11.0470    0.8900 H   0  0  0  0  0  0  0  0  0  0  0  0
    6.2960   12.9630    0.8900 H   0  0  0  0  0  0  0  0  0  0  0  0
    6.2960   12.9630   -0.8900 H   0  0  0  0  0  0  0  0  0  0  0  0
    8.0630   11.7770    0.8900 H   0  0  0  0  0  0  0  0  0  0  0  0
    8.0630   11.7770   -0.8900 H   0  0  0  0  0  0  0  0  0  0  0  0
    7.2910   10.4300    0.0000 H   0  0  0  0  0  0  0  0  0  0  0  0
  1  2  1  0  0  0  0
  1  7  1  0  0  0  0
  1  8  1  0  0  0  0
  1  9  1  0  0  0  0
  2  3  1  0  0  0  0
  2 10  1  0  0  0  0
  2 11  1  0  0  0  0
  3  4  1  0  0  0  0
  3 12  1  0  0  0  0
  3 13  1  0  0  0  0
  4  5  1  0  0  0  0
  4 14  1  0  0  0  0
  4 15  1  0  0  0  0
  5  6  1  0  0  0  0
  5 16  1  0  0  0  0
  5 17  1  0  0  0  0
  6 18  1  0  0  0  0
  6 19  1  0  0  0  0
  6 20  1  0  0  0  0
M  END
