6nuq_6.pdb
  MOE2019           3D

 22 21  0  0  0  0  0  0  0  0999 V2000
   -1.8330   11.6580    0.0000 C   0  0  0  0  0  0  0  0  0  0  0  0
   -0.5890   10.8200    0.0000 C   0  0  0  0  0  0  0  0  0  0  0  0
    0.7590   11.4780    0.0000 C   0  0  0  0  0  0  0  0  0  0  0  0
    2.0030   10.6410    0.0000 C   0  0  0  0  0  0  0  0  0  0  0  0
    3.3510   11.2990    0.0000 C   0  0  0  0  0  0  0  0  0  0  0  0
    4.5950   10.4620    0.0000 C   0  0  0  0  0  0  0  0  0  0  0  0
    5.9430   11.1200    0.0000 C   0  0  0  0  0  0  0  0  0  0  0  0
    7.2900   11.7790    0.0000 C   0  0  0  0  0  0  0  0  0  0  0  0
    8.2470   12.2470    0.0000 H   0  0  0  0  0  0  0  0  0  0  0  0
   -1.7900   12.2860   -0.8900 H   0  0  0  0  0  0  0  0  0  0  0  0
   -1.7900   12.2860    0.8900 H   0  0  0  0  0  0  0  0  0  0  0  0
   -2.7450   11.0620    0.0000 H   0  0  0  0  0  0  0  0  0  0  0  0
   -0.6330   10.1920    0.8900 H   0  0  0  0  0  0  0  0  0  0  0  0
   -0.6330   10.1920   -0.8900 H   0  0  0  0  0  0  0  0  0  0  0  0
    0.8020   12.1060   -0.8900 H   0  0  0  0  0  0  0  0  0  0  0  0
    0.8020   12.1060    0.8900 H   0  0  0  0  0  0  0  0  0  0  0  0
    1.9600   10.0130    0.8900 H   0  0  0  0  0  0  0  0  0  0  0  0
    1.9600   10.0130   -0.8900 H   0  0  0  0  0  0  0  0  0  0  0  0
    3.3940   11.9270    0.8900 H   0  0  0  0  0  0  0  0  0  0  0  0
    3.3940   11.9270   -0.8900 H   0  0  0  0  0  0  0  0  0  0  0  0
    4.5520    9.8340   -0.8900 H   0  0  0  0  0  0  0  0  0  0  0  0
    4.5520    9.8340    0.8900 H   0  0  0  0  0  0  0  0  0  0  0  0
  1  2  1  0  0  0  0
  1 10  1  0  0  0  0
  1 11  1  0  0  0  0
  1 12  1  0  0  0  0
  2  3  1  0  0  0  0
  2 13  1  0  0  0  0
  2 14  1  0  0  0  0
  3  4  1  0  0  0  0
  3 15  1  0  0  0  0
  3 16  1  0  0  0  0
  4  5  1  0  0  0  0
  4 17  1  0  0  0  0
  4 18  1  0  0  0  0
  5  6  1  0  0  0  0
  5 19  1  0  0  0  0
  5 20  1  0  0  0  0
  6  7  1  0  0  0  0
  6 21  1  0  0  0  0
  6 22  1  0  0  0  0
  7  8  3  0  0  0  0
  8  9  1  0  0  0  0
M  END
