6peg_1.pdb
  MOE2019           3D

 20 19  0  0  0  0  0  0  0  0999 V2000
    8.6370   -2.6090    0.0000 C   0  0  0  0  0  0  0  0  0  0  0  0
    7.3380   -3.3590    0.0000 C   0  0  0  0  0  0  0  0  0  0  0  0
    6.0390   -2.6090    0.0000 C   0  0  0  0  0  0  0  0  0  0  0  0
    4.7400   -3.3590    0.0000 C   0  0  0  0  0  0  0  0  0  0  0  0
    3.4410   -2.6090    0.0000 C   0  0  0  0  0  0  0  0  0  0  0  0
    2.1420   -3.3590    0.0000 C   0  0  0  0  0  0  0  0  0  0  0  0
    8.6370   -1.9800   -0.8900 H   0  0  0  0  0  0  0  0  0  0  0  0
    9.5070   -3.2660    0.0000 H   0  0  0  0  0  0  0  0  0  0  0  0
    8.6370   -1.9800    0.8900 H   0  0  0  0  0  0  0  0  0  0  0  0
    7.3380   -3.9880    0.8900 H   0  0  0  0  0  0  0  0  0  0  0  0
    7.3380   -3.9880   -0.8900 H   0  0  0  0  0  0  0  0  0  0  0  0
    6.0390   -1.9800   -0.8900 H   0  0  0  0  0  0  0  0  0  0  0  0
    6.0390   -1.9800    0.8900 H   0  0  0  0  0  0  0  0  0  0  0  0
    4.7400   -3.9880    0.8900 H   0  0  0  0  0  0  0  0  0  0  0  0
    4.7400   -3.9880   -0.8900 H   0  0  0  0  0  0  0  0  0  0  0  0
    3.4410   -1.9800   -0.8900 H   0  0  0  0  0  0  0  0  0  0  0  0
    3.4410   -1.9800    0.8900 H   0  0  0  0  0  0  0  0  0  0  0  0
    2.1420   -3.9880    0.8900 H   0  0  0  0  0  0  0  0  0  0  0  0
    1.2720   -2.7020    0.0000 H   0  0  0  0  0  0  0  0  0  0  0  0
    2.1420   -3.9880   -0.8900 H   0  0  0  0  0  0  0  0  0  0  0  0
  1  2  1  0  0  0  0
  1  7  1  0  0  0  0
  1  8  1  0  0  0  0
  1  9  1  0  0  0  0
  2  3  1  0  0  0  0
  2 10  1  0  0  0  0
  2 11  1  0  0  0  0
  3  4  1  0  0  0  0
  3 12  1  0  0  0  0
  3 13  1  0  0  0  0
  4  5  1  0  0  0  0
  4 14  1  0  0  0  0
  4 15  1  0  0  0  0
  5  6  1  0  0  0  0
  5 16  1  0  0  0  0
  5 17  1  0  0  0  0
  6 18  1  0  0  0  0
  6 19  1  0  0  0  0
  6 20  1  0  0  0  0
M  END
