6psj_4.pdb
  MOE2019           3D

 20 19  0  0  0  0  0  0  0  0999 V2000
    3.1340    5.4280    0.0000 C   0  0  0  0  0  0  0  0  0  0  0  0
    2.3840    4.1290    0.0000 C   0  0  0  0  0  0  0  0  0  0  0  0
    0.8840    4.1290    0.0000 C   0  0  0  0  0  0  0  0  0  0  0  0
    0.1340    2.8300    0.0000 C   0  0  0  0  0  0  0  0  0  0  0  0
   -1.3660    2.8300    0.0000 C   0  0  0  0  0  0  0  0  0  0  0  0
   -2.1160    1.5310    0.0000 C   0  0  0  0  0  0  0  0  0  0  0  0
    2.8190    5.9730    0.8900 H   0  0  0  0  0  0  0  0  0  0  0  0
    2.8190    5.9730   -0.8900 H   0  0  0  0  0  0  0  0  0  0  0  0
    4.2160    5.2940    0.0000 H   0  0  0  0  0  0  0  0  0  0  0  0
    2.6990    3.5840   -0.8900 H   0  0  0  0  0  0  0  0  0  0  0  0
    2.6990    3.5840    0.8900 H   0  0  0  0  0  0  0  0  0  0  0  0
    0.5690    4.6740   -0.8900 H   0  0  0  0  0  0  0  0  0  0  0  0
    0.5690    4.6740    0.8900 H   0  0  0  0  0  0  0  0  0  0  0  0
    0.4490    2.2850    0.8900 H   0  0  0  0  0  0  0  0  0  0  0  0
    0.4490    2.2850   -0.8900 H   0  0  0  0  0  0  0  0  0  0  0  0
   -1.6810    3.3750   -0.8900 H   0  0  0  0  0  0  0  0  0  0  0  0
   -1.6810    3.3750    0.8900 H   0  0  0  0  0  0  0  0  0  0  0  0
   -1.8010    0.9860    0.8900 H   0  0  0  0  0  0  0  0  0  0  0  0
   -1.8010    0.9860   -0.8900 H   0  0  0  0  0  0  0  0  0  0  0  0
   -3.1980    1.6650    0.0000 H   0  0  0  0  0  0  0  0  0  0  0  0
  1  2  1  0  0  0  0
  1  7  1  0  0  0  0
  1  8  1  0  0  0  0
  1  9  1  0  0  0  0
  2  3  1  0  0  0  0
  2 10  1  0  0  0  0
  2 11  1  0  0  0  0
  3  4  1  0  0  0  0
  3 12  1  0  0  0  0
  3 13  1  0  0  0  0
  4  5  1  0  0  0  0
  4 14  1  0  0  0  0
  4 15  1  0  0  0  0
  5  6  1  0  0  0  0
  5 16  1  0  0  0  0
  5 17  1  0  0  0  0
  6 18  1  0  0  0  0
  6 19  1  0  0  0  0
  6 20  1  0  0  0  0
M  END
