6vs3_12.pdb
  MOE2019           3D

 19 18  0  0  0  0  0  0  0  0999 V2000
   -0.6600  -19.4340    0.0000 C   0  0  0  0  0  0  0  0  0  0  0  0
    0.0900  -18.1350    0.0000 C   0  0  0  0  0  0  0  0  0  0  0  0
    1.5900  -18.1350    0.0000 O   0  0  0  0  0  0  0  0  0  0  0  0
    2.3400  -16.8360    0.0000 C   0  0  0  0  0  0  0  0  0  0  0  0
    3.8400  -16.8360    0.0000 C   0  0  0  0  0  0  0  0  0  0  0  0
    4.5900  -15.5370    0.0000 O   0  0  0  0  0  0  0  0  0  0  0  0
    6.0900  -15.5370    0.0000 C   0  0  0  0  0  0  0  0  0  0  0  0
   -0.3450  -19.9790    0.8900 H   0  0  0  0  0  0  0  0  0  0  0  0
   -0.3450  -19.9790   -0.8900 H   0  0  0  0  0  0  0  0  0  0  0  0
   -1.7420  -19.3000    0.0000 H   0  0  0  0  0  0  0  0  0  0  0  0
   -0.2250  -17.5900    0.8900 H   0  0  0  0  0  0  0  0  0  0  0  0
   -0.2250  -17.5900   -0.8900 H   0  0  0  0  0  0  0  0  0  0  0  0
    2.0250  -16.2910   -0.8900 H   0  0  0  0  0  0  0  0  0  0  0  0
    2.0250  -16.2910    0.8900 H   0  0  0  0  0  0  0  0  0  0  0  0
    4.1550  -17.3810   -0.8900 H   0  0  0  0  0  0  0  0  0  0  0  0
    4.1550  -17.3810    0.8900 H   0  0  0  0  0  0  0  0  0  0  0  0
    6.4050  -16.0820    0.8900 H   0  0  0  0  0  0  0  0  0  0  0  0
    6.4050  -16.0820   -0.8900 H   0  0  0  0  0  0  0  0  0  0  0  0
    6.5140  -14.5330    0.0000 H   0  0  0  0  0  0  0  0  0  0  0  0
  1  2  1  0  0  0  0
  1  8  1  0  0  0  0
  1  9  1  0  0  0  0
  1 10  1  0  0  0  0
  2  3  1  0  0  0  0
  2 11  1  0  0  0  0
  2 12  1  0  0  0  0
  3  4  1  0  0  0  0
  4  5  1  0  0  0  0
  4 13  1  0  0  0  0
  4 14  1  0  0  0  0
  5  6  1  0  0  0  0
  5 15  1  0  0  0  0
  5 16  1  0  0  0  0
  6  7  1  0  0  0  0
  7 17  1  0  0  0  0
  7 18  1  0  0  0  0
  7 19  1  0  0  0  0
M  END
