6vs3_19.pdb
  MOE2019           3D

 29 28  0  0  0  0  0  0  0  0999 V2000
  -13.3230    1.8170    0.0000 C   0  0  0  0  0  0  0  0  0  0  0  0
  -12.0240    2.5670    0.0000 C   0  0  0  0  0  0  0  0  0  0  0  0
  -10.7250    1.8170    0.0000 O   0  0  0  0  0  0  0  0  0  0  0  0
   -9.4260    2.5670    0.0000 C   0  0  0  0  0  0  0  0  0  0  0  0
   -8.1270    1.8170    0.0000 C   0  0  0  0  0  0  0  0  0  0  0  0
   -6.8280    2.5670    0.0000 O   0  0  0  0  0  0  0  0  0  0  0  0
   -5.5290    1.8170    0.0000 C   0  0  0  0  0  0  0  0  0  0  0  0
   -4.2300    2.5670    0.0000 C   0  0  0  0  0  0  0  0  0  0  0  0
   -2.9310    1.8170    0.0000 O   0  0  0  0  0  0  0  0  0  0  0  0
   -1.6320    2.5670    0.0000 C   0  0  0  0  0  0  0  0  0  0  0  0
   -0.3330    1.8170    0.0000 C   0  0  0  0  0  0  0  0  0  0  0  0
  -13.3230    1.1880   -0.8900 H   0  0  0  0  0  0  0  0  0  0  0  0
  -13.3230    1.1880    0.8900 H   0  0  0  0  0  0  0  0  0  0  0  0
  -14.1930    2.4740    0.0000 H   0  0  0  0  0  0  0  0  0  0  0  0
  -12.0240    3.1960    0.8900 H   0  0  0  0  0  0  0  0  0  0  0  0
  -12.0240    3.1960   -0.8900 H   0  0  0  0  0  0  0  0  0  0  0  0
   -9.4260    3.1960    0.8900 H   0  0  0  0  0  0  0  0  0  0  0  0
   -9.4260    3.1960   -0.8900 H   0  0  0  0  0  0  0  0  0  0  0  0
   -8.1270    1.1880   -0.8900 H   0  0  0  0  0  0  0  0  0  0  0  0
   -8.1270    1.1880    0.8900 H   0  0  0  0  0  0  0  0  0  0  0  0
   -5.5290    1.1880   -0.8900 H   0  0  0  0  0  0  0  0  0  0  0  0
   -5.5290    1.1880    0.8900 H   0  0  0  0  0  0  0  0  0  0  0  0
   -4.2300    3.1960    0.8900 H   0  0  0  0  0  0  0  0  0  0  0  0
   -4.2300    3.1960   -0.8900 H   0  0  0  0  0  0  0  0  0  0  0  0
   -1.6320    3.1960    0.8900 H   0  0  0  0  0  0  0  0  0  0  0  0
   -1.6320    3.1960   -0.8900 H   0  0  0  0  0  0  0  0  0  0  0  0
   -0.3330    1.1880   -0.8900 H   0  0  0  0  0  0  0  0  0  0  0  0
    0.5370    2.4740    0.0000 H   0  0  0  0  0  0  0  0  0  0  0  0
   -0.3330    1.1880    0.8900 H   0  0  0  0  0  0  0  0  0  0  0  0
  1  2  1  0  0  0  0
  1 12  1  0  0  0  0
  1 13  1  0  0  0  0
  1 14  1  0  0  0  0
  2  3  1  0  0  0  0
  2 15  1  0  0  0  0
  2 16  1  0  0  0  0
  3  4  1  0  0  0  0
  4  5  1  0  0  0  0
  4 17  1  0  0  0  0
  4 18  1  0  0  0  0
  5  6  1  0  0  0  0
  5 19  1  0  0  0  0
  5 20  1  0  0  0  0
  6  7  1  0  0  0  0
  7  8  1  0  0  0  0
  7 21  1  0  0  0  0
  7 22  1  0  0  0  0
  8  9  1  0  0  0  0
  8 23  1  0  0  0  0
  8 24  1  0  0  0  0
  9 10  1  0  0  0  0
 10 11  1  0  0  0  0
 10 25  1  0  0  0  0
 10 26  1  0  0  0  0
 11 27  1  0  0  0  0
 11 28  1  0  0  0  0
 11 29  1  0  0  0  0
M  END
