6w8l_1.pdb
  MOE2019           3D

 23 22  0  0  0  0  0  0  0  0999 V2000
   16.8580    9.3430    0.0000 C   0  0  0  0  0  0  0  0  0  0  0  0
   15.6200    8.4950    0.0000 C   0  0  0  0  0  0  0  0  0  0  0  0
   14.2670    9.1430    0.0000 C   0  0  0  0  0  0  0  0  0  0  0  0
   13.0300    8.2950    0.0000 C   0  0  0  0  0  0  0  0  0  0  0  0
   11.6770    8.9420    0.0000 C   0  0  0  0  0  0  0  0  0  0  0  0
   10.4400    8.0940    0.0000 C   0  0  0  0  0  0  0  0  0  0  0  0
    9.0870    8.7420    0.0000 C   0  0  0  0  0  0  0  0  0  0  0  0
   16.8090    9.9700    0.8900 H   0  0  0  0  0  0  0  0  0  0  0  0
   17.7760    8.7550    0.0000 H   0  0  0  0  0  0  0  0  0  0  0  0
   16.8090    9.9700   -0.8900 H   0  0  0  0  0  0  0  0  0  0  0  0
   15.6680    7.8680   -0.8900 H   0  0  0  0  0  0  0  0  0  0  0  0
   15.6680    7.8680    0.8900 H   0  0  0  0  0  0  0  0  0  0  0  0
   14.2180    9.7700    0.8900 H   0  0  0  0  0  0  0  0  0  0  0  0
   14.2180    9.7700   -0.8900 H   0  0  0  0  0  0  0  0  0  0  0  0
   13.0790    7.6680   -0.8900 H   0  0  0  0  0  0  0  0  0  0  0  0
   13.0790    7.6680    0.8900 H   0  0  0  0  0  0  0  0  0  0  0  0
   11.6280    9.5690   -0.8900 H   0  0  0  0  0  0  0  0  0  0  0  0
   11.6280    9.5690    0.8900 H   0  0  0  0  0  0  0  0  0  0  0  0
   10.4890    7.4670    0.8900 H   0  0  0  0  0  0  0  0  0  0  0  0
   10.4890    7.4670   -0.8900 H   0  0  0  0  0  0  0  0  0  0  0  0
    9.0390    9.3690   -0.8900 H   0  0  0  0  0  0  0  0  0  0  0  0
    9.0390    9.3690    0.8900 H   0  0  0  0  0  0  0  0  0  0  0  0
    8.2700    8.0200    0.0000 H   0  0  0  0  0  0  0  0  0  0  0  0
  1  2  1  0  0  0  0
  1  8  1  0  0  0  0
  1  9  1  0  0  0  0
  1 10  1  0  0  0  0
  2  3  1  0  0  0  0
  2 11  1  0  0  0  0
  2 12  1  0  0  0  0
  3  4  1  0  0  0  0
  3 13  1  0  0  0  0
  3 14  1  0  0  0  0
  4  5  1  0  0  0  0
  4 15  1  0  0  0  0
  4 16  1  0  0  0  0
  5  6  1  0  0  0  0
  5 17  1  0  0  0  0
  5 18  1  0  0  0  0
  6  7  1  0  0  0  0
  6 19  1  0  0  0  0
  6 20  1  0  0  0  0
  7 21  1  0  0  0  0
  7 22  1  0  0  0  0
  7 23  1  0  0  0  0
M  END
