6w8l_15.pdb
  MOE2019           3D

 52 51  0  0  0  0  0  0  0  0999 V2000
   -1.6110  -16.0040    0.0000 O   0  0  0  0  0  0  0  0  0  0  0  0
   -1.5990  -16.5630   -0.7800 H   0  0  0  0  0  0  0  0  0  0  0  0
   -2.9090  -15.2530    0.0000 C   0  0  0  0  0  0  0  0  0  0  0  0
   -4.2090  -16.0010    0.0000 C   0  0  0  0  0  0  0  0  0  0  0  0
   -5.5080  -15.2490    0.0000 O   0  0  0  0  0  0  0  0  0  0  0  0
   -6.8080  -15.9980    0.0000 C   0  0  0  0  0  0  0  0  0  0  0  0
   -8.1060  -15.2460    0.0000 C   0  0  0  0  0  0  0  0  0  0  0  0
   -9.4060  -15.9940    0.0000 O   0  0  0  0  0  0  0  0  0  0  0  0
  -10.7040  -15.2430    0.0000 C   0  0  0  0  0  0  0  0  0  0  0  0
  -12.0040  -15.9910    0.0000 C   0  0  0  0  0  0  0  0  0  0  0  0
  -13.3020  -15.2390    0.0000 O   0  0  0  0  0  0  0  0  0  0  0  0
  -14.6020  -15.9880    0.0000 C   0  0  0  0  0  0  0  0  0  0  0  0
  -15.9000  -15.2360    0.0000 C   0  0  0  0  0  0  0  0  0  0  0  0
  -17.2000  -15.9840    0.0000 O   0  0  0  0  0  0  0  0  0  0  0  0
  -18.4980  -15.2330    0.0000 C   0  0  0  0  0  0  0  0  0  0  0  0
  -19.7980  -15.9810    0.0000 C   0  0  0  0  0  0  0  0  0  0  0  0
  -21.0960  -15.2290    0.0000 O   0  0  0  0  0  0  0  0  0  0  0  0
  -21.0940  -13.7290    0.0000 C   0  0  0  0  0  0  0  0  0  0  0  0
  -22.3920  -12.9780    0.0000 C   0  0  0  0  0  0  0  0  0  0  0  0
  -22.3900  -11.4780    0.0000 O   0  0  0  0  0  0  0  0  0  0  0  0
  -23.6880  -10.7260    0.0000 C   0  0  0  0  0  0  0  0  0  0  0  0
  -23.6860   -9.2260    0.0000 C   0  0  0  0  0  0  0  0  0  0  0  0
  -22.3860   -8.4780    0.0000 O   0  0  0  0  0  0  0  0  0  0  0  0
  -24.9840   -8.4740    0.0000 N   0  0  0  0  0  0  0  0  0  0  0  0
   -2.9080  -14.6240   -0.8900 H   0  0  0  0  0  0  0  0  0  0  0  0
   -2.9080  -14.6240    0.8900 H   0  0  0  0  0  0  0  0  0  0  0  0
   -4.2100  -16.6300    0.8900 H   0  0  0  0  0  0  0  0  0  0  0  0
   -4.2100  -16.6300   -0.8900 H   0  0  0  0  0  0  0  0  0  0  0  0
   -6.8090  -16.6270    0.8900 H   0  0  0  0  0  0  0  0  0  0  0  0
   -6.8090  -16.6270   -0.8900 H   0  0  0  0  0  0  0  0  0  0  0  0
   -8.1050  -14.6170   -0.8900 H   0  0  0  0  0  0  0  0  0  0  0  0
   -8.1050  -14.6170    0.8900 H   0  0  0  0  0  0  0  0  0  0  0  0
  -10.7030  -14.6140   -0.8900 H   0  0  0  0  0  0  0  0  0  0  0  0
  -10.7030  -14.6140    0.8900 H   0  0  0  0  0  0  0  0  0  0  0  0
  -12.0050  -16.6200    0.8900 H   0  0  0  0  0  0  0  0  0  0  0  0
  -12.0050  -16.6200   -0.8900 H   0  0  0  0  0  0  0  0  0  0  0  0
  -14.6030  -16.6170    0.8900 H   0  0  0  0  0  0  0  0  0  0  0  0
  -14.6030  -16.6170   -0.8900 H   0  0  0  0  0  0  0  0  0  0  0  0
  -15.8990  -14.6070   -0.8900 H   0  0  0  0  0  0  0  0  0  0  0  0
  -15.8990  -14.6070    0.8900 H   0  0  0  0  0  0  0  0  0  0  0  0
  -18.4970  -14.6040   -0.8900 H   0  0  0  0  0  0  0  0  0  0  0  0
  -18.4970  -14.6040    0.8900 H   0  0  0  0  0  0  0  0  0  0  0  0
  -19.7990  -16.6100    0.8900 H   0  0  0  0  0  0  0  0  0  0  0  0
  -19.7990  -16.6100   -0.8900 H   0  0  0  0  0  0  0  0  0  0  0  0
  -20.5490  -13.4150   -0.8900 H   0  0  0  0  0  0  0  0  0  0  0  0
  -20.5490  -13.4150    0.8900 H   0  0  0  0  0  0  0  0  0  0  0  0
  -22.9370  -13.2920    0.8900 H   0  0  0  0  0  0  0  0  0  0  0  0
  -22.9370  -13.2920   -0.8900 H   0  0  0  0  0  0  0  0  0  0  0  0
  -24.2330  -11.0400    0.8900 H   0  0  0  0  0  0  0  0  0  0  0  0
  -24.2330  -11.0400   -0.8900 H   0  0  0  0  0  0  0  0  0  0  0  0
  -24.9830   -7.4640    0.0000 H   0  0  0  0  0  0  0  0  0  0  0  0
  -25.8590   -8.9780    0.0000 H   0  0  0  0  0  0  0  0  0  0  0  0
  1  2  1  0  0  0  0
  1  3  1  0  0  0  0
  3  4  1  0  0  0  0
  3 25  1  0  0  0  0
  3 26  1  0  0  0  0
  4  5  1  0  0  0  0
  4 27  1  0  0  0  0
  4 28  1  0  0  0  0
  5  6  1  0  0  0  0
  6  7  1  0  0  0  0
  6 29  1  0  0  0  0
  6 30  1  0  0  0  0
  7  8  1  0  0  0  0
  7 31  1  0  0  0  0
  7 32  1  0  0  0  0
  8  9  1  0  0  0  0
  9 10  1  0  0  0  0
  9 33  1  0  0  0  0
  9 34  1  0  0  0  0
 10 11  1  0  0  0  0
 10 35  1  0  0  0  0
 10 36  1  0  0  0  0
 11 12  1  0  0  0  0
 12 13  1  0  0  0  0
 12 37  1  0  0  0  0
 12 38  1  0  0  0  0
 13 14  1  0  0  0  0
 13 39  1  0  0  0  0
 13 40  1  0  0  0  0
 14 15  1  0  0  0  0
 15 16  1  0  0  0  0
 15 41  1  0  0  0  0
 15 42  1  0  0  0  0
 16 17  1  0  0  0  0
 16 43  1  0  0  0  0
 16 44  1  0  0  0  0
 17 18  1  0  0  0  0
 18 19  1  0  0  0  0
 18 45  1  0  0  0  0
 18 46  1  0  0  0  0
 19 20  1  0  0  0  0
 19 47  1  0  0  0  0
 19 48  1  0  0  0  0
 20 21  1  0  0  0  0
 21 22  1  0  0  0  0
 21 49  1  0  0  0  0
 21 50  1  0  0  0  0
 22 23  2  0  0  0  0
 22 24  1  0  0  0  0
 24 51  1  0  0  0  0
 24 52  1  0  0  0  0
M  END
