6w8l_5.pdb
  MOE2019           3D

 30 29  0  0  0  0  0  0  0  0999 V2000
   12.3120   -3.9370    0.0000 C   0  0  0  0  0  0  0  0  0  0  0  0
   13.8100   -3.8700    0.0000 C   0  0  0  0  0  0  0  0  0  0  0  0
   14.5020   -2.5400    0.0000 C   0  0  0  0  0  0  0  0  0  0  0  0
   16.0010   -2.4740    0.0000 C   0  0  0  0  0  0  0  0  0  0  0  0
   16.6930   -1.1430    0.0000 C   0  0  0  0  0  0  0  0  0  0  0  0
   18.1910   -1.0770    0.0000 C   0  0  0  0  0  0  0  0  0  0  0  0
   18.8830    0.2540    0.0000 C   0  0  0  0  0  0  0  0  0  0  0  0
   20.3820    0.3200    0.0000 C   0  0  0  0  0  0  0  0  0  0  0  0
   21.0740    1.6510    0.0000 C   0  0  0  0  0  0  0  0  0  0  0  0
   20.2670    2.9160    0.0000 O   0  0  0  0  0  0  0  0  0  0  0  0
   22.5720    1.7170    0.0000 N   0  0  0  0  0  0  0  0  0  0  0  0
   11.9740   -3.4060    0.8900 H   0  0  0  0  0  0  0  0  0  0  0  0
   11.9320   -4.9590    0.0000 H   0  0  0  0  0  0  0  0  0  0  0  0
   11.9740   -3.4060   -0.8900 H   0  0  0  0  0  0  0  0  0  0  0  0
   14.1480   -4.4010   -0.8900 H   0  0  0  0  0  0  0  0  0  0  0  0
   14.1480   -4.4010    0.8900 H   0  0  0  0  0  0  0  0  0  0  0  0
   14.1640   -2.0090    0.8900 H   0  0  0  0  0  0  0  0  0  0  0  0
   14.1640   -2.0090   -0.8900 H   0  0  0  0  0  0  0  0  0  0  0  0
   16.3390   -3.0050   -0.8900 H   0  0  0  0  0  0  0  0  0  0  0  0
   16.3390   -3.0050    0.8900 H   0  0  0  0  0  0  0  0  0  0  0  0
   16.3550   -0.6120    0.8900 H   0  0  0  0  0  0  0  0  0  0  0  0
   16.3550   -0.6120   -0.8900 H   0  0  0  0  0  0  0  0  0  0  0  0
   18.5290   -1.6080   -0.8900 H   0  0  0  0  0  0  0  0  0  0  0  0
   18.5290   -1.6080    0.8900 H   0  0  0  0  0  0  0  0  0  0  0  0
   18.5450    0.7850    0.8900 H   0  0  0  0  0  0  0  0  0  0  0  0
   18.5450    0.7850   -0.8900 H   0  0  0  0  0  0  0  0  0  0  0  0
   20.7200   -0.2110   -0.8900 H   0  0  0  0  0  0  0  0  0  0  0  0
   20.7200   -0.2110    0.8900 H   0  0  0  0  0  0  0  0  0  0  0  0
   23.1150    0.8650    0.0000 H   0  0  0  0  0  0  0  0  0  0  0  0
   23.0380    2.6130    0.0000 H   0  0  0  0  0  0  0  0  0  0  0  0
  1  2  1  0  0  0  0
  1 12  1  0  0  0  0
  1 13  1  0  0  0  0
  1 14  1  0  0  0  0
  2  3  1  0  0  0  0
  2 15  1  0  0  0  0
  2 16  1  0  0  0  0
  3  4  1  0  0  0  0
  3 17  1  0  0  0  0
  3 18  1  0  0  0  0
  4  5  1  0  0  0  0
  4 19  1  0  0  0  0
  4 20  1  0  0  0  0
  5  6  1  0  0  0  0
  5 21  1  0  0  0  0
  5 22  1  0  0  0  0
  6  7  1  0  0  0  0
  6 23  1  0  0  0  0
  6 24  1  0  0  0  0
  7  8  1  0  0  0  0
  7 25  1  0  0  0  0
  7 26  1  0  0  0  0
  8  9  1  0  0  0  0
  8 27  1  0  0  0  0
  8 28  1  0  0  0  0
  9 10  2  0  0  0  0
  9 11  1  0  0  0  0
 11 29  1  0  0  0  0
 11 30  1  0  0  0  0
M  END
