6xjk_9.pdb
  MOE2019           3D

 34 33  0  0  0  0  0  0  0  0999 V2000
    6.6170  -13.4670    0.0000 O   0  0  0  0  0  0  0  0  0  0  0  0
    6.6300  -12.9080    0.7800 H   0  0  0  0  0  0  0  0  0  0  0  0
    5.3170  -14.2150    0.0000 C   0  0  0  0  0  0  0  0  0  0  0  0
    4.0190  -13.4630    0.0000 C   0  0  0  0  0  0  0  0  0  0  0  0
    2.7190  -14.2110    0.0000 C   0  0  0  0  0  0  0  0  0  0  0  0
    1.4210  -13.4590    0.0000 C   0  0  0  0  0  0  0  0  0  0  0  0
    0.1210  -14.2070    0.0000 C   0  0  0  0  0  0  0  0  0  0  0  0
   -1.1770  -13.4550    0.0000 C   0  0  0  0  0  0  0  0  0  0  0  0
   -2.4770  -14.2030    0.0000 C   0  0  0  0  0  0  0  0  0  0  0  0
   -3.7750  -13.4510    0.0000 C   0  0  0  0  0  0  0  0  0  0  0  0
   -5.0750  -14.1990    0.0000 C   0  0  0  0  0  0  0  0  0  0  0  0
   -6.3730  -13.4470    0.0000 C   0  0  0  0  0  0  0  0  0  0  0  0
   -6.3710  -11.9470    0.0000 O   0  0  0  0  0  0  0  0  0  0  0  0
   -7.6730  -14.1950    0.0000 N   0  0  0  0  0  0  0  0  0  0  0  0
    5.3160  -14.8440    0.8900 H   0  0  0  0  0  0  0  0  0  0  0  0
    5.3160  -14.8440   -0.8900 H   0  0  0  0  0  0  0  0  0  0  0  0
    4.0200  -12.8340   -0.8900 H   0  0  0  0  0  0  0  0  0  0  0  0
    4.0200  -12.8340    0.8900 H   0  0  0  0  0  0  0  0  0  0  0  0
    2.7180  -14.8400    0.8900 H   0  0  0  0  0  0  0  0  0  0  0  0
    2.7180  -14.8400   -0.8900 H   0  0  0  0  0  0  0  0  0  0  0  0
    1.4220  -12.8300   -0.8900 H   0  0  0  0  0  0  0  0  0  0  0  0
    1.4220  -12.8300    0.8900 H   0  0  0  0  0  0  0  0  0  0  0  0
    0.1200  -14.8360    0.8900 H   0  0  0  0  0  0  0  0  0  0  0  0
    0.1200  -14.8360   -0.8900 H   0  0  0  0  0  0  0  0  0  0  0  0
   -1.1760  -12.8260   -0.8900 H   0  0  0  0  0  0  0  0  0  0  0  0
   -1.1760  -12.8260    0.8900 H   0  0  0  0  0  0  0  0  0  0  0  0
   -2.4780  -14.8320    0.8900 H   0  0  0  0  0  0  0  0  0  0  0  0
   -2.4780  -14.8320   -0.8900 H   0  0  0  0  0  0  0  0  0  0  0  0
   -3.7740  -12.8220   -0.8900 H   0  0  0  0  0  0  0  0  0  0  0  0
   -3.7740  -12.8220    0.8900 H   0  0  0  0  0  0  0  0  0  0  0  0
   -5.0760  -14.8280    0.8900 H   0  0  0  0  0  0  0  0  0  0  0  0
   -5.0760  -14.8280   -0.8900 H   0  0  0  0  0  0  0  0  0  0  0  0
   -7.6750  -15.2050    0.0000 H   0  0  0  0  0  0  0  0  0  0  0  0
   -8.5470  -13.6880    0.0000 H   0  0  0  0  0  0  0  0  0  0  0  0
  1  2  1  0  0  0  0
  1  3  1  0  0  0  0
  3  4  1  0  0  0  0
  3 15  1  0  0  0  0
  3 16  1  0  0  0  0
  4  5  1  0  0  0  0
  4 17  1  0  0  0  0
  4 18  1  0  0  0  0
  5  6  1  0  0  0  0
  5 19  1  0  0  0  0
  5 20  1  0  0  0  0
  6  7  1  0  0  0  0
  6 21  1  0  0  0  0
  6 22  1  0  0  0  0
  7  8  1  0  0  0  0
  7 23  1  0  0  0  0
  7 24  1  0  0  0  0
  8  9  1  0  0  0  0
  8 25  1  0  0  0  0
  8 26  1  0  0  0  0
  9 10  1  0  0  0  0
  9 27  1  0  0  0  0
  9 28  1  0  0  0  0
 10 11  1  0  0  0  0
 10 29  1  0  0  0  0
 10 30  1  0  0  0  0
 11 12  1  0  0  0  0
 11 31  1  0  0  0  0
 11 32  1  0  0  0  0
 12 13  2  0  0  0  0
 12 14  1  0  0  0  0
 14 33  1  0  0  0  0
 14 34  1  0  0  0  0
M  END
