6y7k_2.pdb
  MOE2019           3D

 34 33  0  0  0  0  0  0  0  0999 V2000
   -0.8190   -6.6150    0.0000 C   0  0  0  0  0  0  0  0  0  0  0  0
    0.6810   -6.6150    0.0000 C   0  0  0  0  0  0  0  0  0  0  0  0
    1.4310   -5.3160    0.0000 C   0  0  0  0  0  0  0  0  0  0  0  0
    2.9310   -5.3160    0.0000 C   0  0  0  0  0  0  0  0  0  0  0  0
    3.6810   -4.0170    0.0000 C   0  0  0  0  0  0  0  0  0  0  0  0
    5.1810   -4.0170    0.0000 C   0  0  0  0  0  0  0  0  0  0  0  0
    5.9310   -2.7180    0.0000 C   0  0  0  0  0  0  0  0  0  0  0  0
    7.4310   -2.7180    0.0000 C   0  0  0  0  0  0  0  0  0  0  0  0
    8.1810   -1.4190    0.0000 N   0  0  0  0  0  0  0  0  0  0  0  0
    9.6810   -1.4190    0.0000 C   0  0  0  0  0  0  0  0  0  0  0  0
   10.4310   -0.1200    0.0000 O   0  0  0  0  0  0  0  0  0  0  0  0
   10.4310   -2.7180    0.0000 C   0  0  0  0  0  0  0  0  0  0  0  0
   11.9310   -2.7180    0.0000 O   0  0  0  0  0  0  0  0  0  0  0  0
   12.2210   -2.2400   -0.7800 H   0  0  0  0  0  0  0  0  0  0  0  0
   -1.1340   -6.0700    0.8900 H   0  0  0  0  0  0  0  0  0  0  0  0
   -1.2430   -7.6190    0.0000 H   0  0  0  0  0  0  0  0  0  0  0  0
   -1.1340   -6.0700   -0.8900 H   0  0  0  0  0  0  0  0  0  0  0  0
    0.9960   -7.1600   -0.8900 H   0  0  0  0  0  0  0  0  0  0  0  0
    0.9960   -7.1600    0.8900 H   0  0  0  0  0  0  0  0  0  0  0  0
    1.1160   -4.7710    0.8900 H   0  0  0  0  0  0  0  0  0  0  0  0
    1.1160   -4.7710   -0.8900 H   0  0  0  0  0  0  0  0  0  0  0  0
    3.2460   -5.8610   -0.8900 H   0  0  0  0  0  0  0  0  0  0  0  0
    3.2460   -5.8610    0.8900 H   0  0  0  0  0  0  0  0  0  0  0  0
    3.3660   -3.4720    0.8900 H   0  0  0  0  0  0  0  0  0  0  0  0
    3.3660   -3.4720   -0.8900 H   0  0  0  0  0  0  0  0  0  0  0  0
    5.4960   -4.5620   -0.8900 H   0  0  0  0  0  0  0  0  0  0  0  0
    5.4960   -4.5620    0.8900 H   0  0  0  0  0  0  0  0  0  0  0  0
    5.6160   -2.1730    0.8900 H   0  0  0  0  0  0  0  0  0  0  0  0
    5.6160   -2.1730   -0.8900 H   0  0  0  0  0  0  0  0  0  0  0  0
    7.7460   -3.2630   -0.8900 H   0  0  0  0  0  0  0  0  0  0  0  0
    7.7460   -3.2630    0.8900 H   0  0  0  0  0  0  0  0  0  0  0  0
    7.6760   -0.5440    0.0000 H   0  0  0  0  0  0  0  0  0  0  0  0
   10.1160   -3.2630   -0.8900 H   0  0  0  0  0  0  0  0  0  0  0  0
   10.1160   -3.2630    0.8900 H   0  0  0  0  0  0  0  0  0  0  0  0
  1  2  1  0  0  0  0
  1 15  1  0  0  0  0
  1 16  1  0  0  0  0
  1 17  1  0  0  0  0
  2  3  1  0  0  0  0
  2 18  1  0  0  0  0
  2 19  1  0  0  0  0
  3  4  1  0  0  0  0
  3 20  1  0  0  0  0
  3 21  1  0  0  0  0
  4  5  1  0  0  0  0
  4 22  1  0  0  0  0
  4 23  1  0  0  0  0
  5  6  1  0  0  0  0
  5 24  1  0  0  0  0
  5 25  1  0  0  0  0
  6  7  1  0  0  0  0
  6 26  1  0  0  0  0
  6 27  1  0  0  0  0
  7  8  1  0  0  0  0
  7 28  1  0  0  0  0
  7 29  1  0  0  0  0
  8  9  1  0  0  0  0
  8 30  1  0  0  0  0
  8 31  1  0  0  0  0
  9 10  1  0  0  0  0
  9 32  1  0  0  0  0
 10 11  2  0  0  0  0
 10 12  1  0  0  0  0
 12 13  1  0  0  0  0
 12 33  1  0  0  0  0
 12 34  1  0  0  0  0
 13 14  1  0  0  0  0
M  END
