6y7k_9.pdb
  MOE2019           3D

 33 32  0  0  0  0  0  0  0  0999 V2000
    0.5790    4.3790    0.0000 O   0  0  0  0  0  0  0  0  0  0  0  0
    0.5790    2.8790    0.0000 C   0  0  0  0  0  0  0  0  0  0  0  0
    1.8780    2.1290    0.0000 N   0  0  0  0  0  0  0  0  0  0  0  0
    3.1770    2.8790    0.0000 C   0  0  0  0  0  0  0  0  0  0  0  0
    4.4760    2.1290    0.0000 C   0  0  0  0  0  0  0  0  0  0  0  0
    5.7750    2.8790    0.0000 C   0  0  0  0  0  0  0  0  0  0  0  0
    7.0740    2.1290    0.0000 C   0  0  0  0  0  0  0  0  0  0  0  0
    8.3730    2.8790    0.0000 C   0  0  0  0  0  0  0  0  0  0  0  0
    9.6720    2.1290    0.0000 C   0  0  0  0  0  0  0  0  0  0  0  0
   10.9720    2.8790    0.0000 C   0  0  0  0  0  0  0  0  0  0  0  0
   12.2710    2.1290    0.0000 C   0  0  0  0  0  0  0  0  0  0  0  0
   -0.7200    2.1290    0.0000 C   0  0  0  0  0  0  0  0  0  0  0  0
    1.8780    1.1190    0.0000 H   0  0  0  0  0  0  0  0  0  0  0  0
    3.1770    3.5080    0.8900 H   0  0  0  0  0  0  0  0  0  0  0  0
    3.1770    3.5080   -0.8900 H   0  0  0  0  0  0  0  0  0  0  0  0
    4.4760    1.5000   -0.8900 H   0  0  0  0  0  0  0  0  0  0  0  0
    4.4760    1.5000    0.8900 H   0  0  0  0  0  0  0  0  0  0  0  0
    5.7750    3.5080    0.8900 H   0  0  0  0  0  0  0  0  0  0  0  0
    5.7750    3.5080   -0.8900 H   0  0  0  0  0  0  0  0  0  0  0  0
    7.0740    1.5000   -0.8900 H   0  0  0  0  0  0  0  0  0  0  0  0
    7.0740    1.5000    0.8900 H   0  0  0  0  0  0  0  0  0  0  0  0
    8.3730    3.5080    0.8900 H   0  0  0  0  0  0  0  0  0  0  0  0
    8.3730    3.5080   -0.8900 H   0  0  0  0  0  0  0  0  0  0  0  0
    9.6720    1.5000   -0.8900 H   0  0  0  0  0  0  0  0  0  0  0  0
    9.6720    1.5000    0.8900 H   0  0  0  0  0  0  0  0  0  0  0  0
   10.9720    3.5080    0.8900 H   0  0  0  0  0  0  0  0  0  0  0  0
   10.9720    3.5080   -0.8900 H   0  0  0  0  0  0  0  0  0  0  0  0
   12.2710    1.5000   -0.8900 H   0  0  0  0  0  0  0  0  0  0  0  0
   13.1410    2.7860    0.0000 H   0  0  0  0  0  0  0  0  0  0  0  0
   12.2710    1.5000    0.8900 H   0  0  0  0  0  0  0  0  0  0  0  0
   -0.7200    1.5000    0.8900 H   0  0  0  0  0  0  0  0  0  0  0  0
   -1.5900    2.7860    0.0000 H   0  0  0  0  0  0  0  0  0  0  0  0
   -0.7200    1.5000   -0.8900 H   0  0  0  0  0  0  0  0  0  0  0  0
  1  2  2  0  0  0  0
  2  3  1  0  0  0  0
  2 12  1  0  0  0  0
  3  4  1  0  0  0  0
  3 13  1  0  0  0  0
  4  5  1  0  0  0  0
  4 14  1  0  0  0  0
  4 15  1  0  0  0  0
  5  6  1  0  0  0  0
  5 16  1  0  0  0  0
  5 17  1  0  0  0  0
  6  7  1  0  0  0  0
  6 18  1  0  0  0  0
  6 19  1  0  0  0  0
  7  8  1  0  0  0  0
  7 20  1  0  0  0  0
  7 21  1  0  0  0  0
  8  9  1  0  0  0  0
  8 22  1  0  0  0  0
  8 23  1  0  0  0  0
  9 10  1  0  0  0  0
  9 24  1  0  0  0  0
  9 25  1  0  0  0  0
 10 11  1  0  0  0  0
 10 26  1  0  0  0  0
 10 27  1  0  0  0  0
 11 28  1  0  0  0  0
 11 29  1  0  0  0  0
 11 30  1  0  0  0  0
 12 31  1  0  0  0  0
 12 32  1  0  0  0  0
 12 33  1  0  0  0  0
M  END
