6y7k_3.pdb
  MOE2019           3D

 50 49  0  0  0  0  0  0  0  0999 V2000
   -3.1200    3.1200    0.0000 O   0  0  0  0  0  0  0  0  0  0  0  0
   -3.1200    4.6200    0.0000 C   0  0  0  0  0  0  0  0  0  0  0  0
   -1.8210    5.3700    0.0000 N   0  0  0  0  0  0  0  0  0  0  0  0
   -0.5220    4.6200    0.0000 C   0  0  0  0  0  0  0  0  0  0  0  0
    0.7770    5.3700    0.0000 C   0  0  0  0  0  0  0  0  0  0  0  0
    2.0760    4.6200    0.0000 C   0  0  0  0  0  0  0  0  0  0  0  0
    3.3750    5.3700    0.0000 O   0  0  0  0  0  0  0  0  0  0  0  0
    4.6740    4.6200    0.0000 C   0  0  0  0  0  0  0  0  0  0  0  0
    5.9730    5.3700    0.0000 C   0  0  0  0  0  0  0  0  0  0  0  0
    7.2720    4.6200    0.0000 O   0  0  0  0  0  0  0  0  0  0  0  0
    8.5710    5.3700    0.0000 C   0  0  0  0  0  0  0  0  0  0  0  0
    9.8700    4.6200    0.0000 C   0  0  0  0  0  0  0  0  0  0  0  0
   11.1690    5.3700    0.0000 O   0  0  0  0  0  0  0  0  0  0  0  0
   12.4680    4.6200    0.0000 C   0  0  0  0  0  0  0  0  0  0  0  0
   13.7670    5.3700    0.0000 C   0  0  0  0  0  0  0  0  0  0  0  0
   15.0660    4.6200    0.0000 C   0  0  0  0  0  0  0  0  0  0  0  0
   16.3650    5.3700    0.0000 N   0  0  0  0  0  0  0  0  0  0  0  0
   16.3650    6.8700    0.0000 C   0  0  0  0  0  0  0  0  0  0  0  0
   15.0660    7.6200    0.0000 O   0  0  0  0  0  0  0  0  0  0  0  0
   17.6640    7.6200    0.0000 C   0  0  0  0  0  0  0  0  0  0  0  0
   18.9630    6.8700    0.0000 O   0  0  0  0  0  0  0  0  0  0  0  0
   18.9760    6.3110    0.7800 H   0  0  0  0  0  0  0  0  0  0  0  0
   -4.4190    5.3700    0.0000 C   0  0  0  0  0  0  0  0  0  0  0  0
   -1.8210    6.3800    0.0000 H   0  0  0  0  0  0  0  0  0  0  0  0
   -0.5220    3.9910   -0.8900 H   0  0  0  0  0  0  0  0  0  0  0  0
   -0.5220    3.9910    0.8900 H   0  0  0  0  0  0  0  0  0  0  0  0
    0.7770    5.9990    0.8900 H   0  0  0  0  0  0  0  0  0  0  0  0
    0.7770    5.9990   -0.8900 H   0  0  0  0  0  0  0  0  0  0  0  0
    2.0760    3.9910   -0.8900 H   0  0  0  0  0  0  0  0  0  0  0  0
    2.0760    3.9910    0.8900 H   0  0  0  0  0  0  0  0  0  0  0  0
    4.6740    3.9910   -0.8900 H   0  0  0  0  0  0  0  0  0  0  0  0
    4.6740    3.9910    0.8900 H   0  0  0  0  0  0  0  0  0  0  0  0
    5.9730    5.9990    0.8900 H   0  0  0  0  0  0  0  0  0  0  0  0
    5.9730    5.9990   -0.8900 H   0  0  0  0  0  0  0  0  0  0  0  0
    8.5710    5.9990    0.8900 H   0  0  0  0  0  0  0  0  0  0  0  0
    8.5710    5.9990   -0.8900 H   0  0  0  0  0  0  0  0  0  0  0  0
    9.8700    3.9910   -0.8900 H   0  0  0  0  0  0  0  0  0  0  0  0
    9.8700    3.9910    0.8900 H   0  0  0  0  0  0  0  0  0  0  0  0
   12.4680    3.9910   -0.8900 H   0  0  0  0  0  0  0  0  0  0  0  0
   12.4680    3.9910    0.8900 H   0  0  0  0  0  0  0  0  0  0  0  0
   13.7670    5.9990    0.8900 H   0  0  0  0  0  0  0  0  0  0  0  0
   13.7670    5.9990   -0.8900 H   0  0  0  0  0  0  0  0  0  0  0  0
   15.0660    3.9910   -0.8900 H   0  0  0  0  0  0  0  0  0  0  0  0
   15.0660    3.9910    0.8900 H   0  0  0  0  0  0  0  0  0  0  0  0
   17.2400    4.8650    0.0000 H   0  0  0  0  0  0  0  0  0  0  0  0
   17.6640    8.2490    0.8900 H   0  0  0  0  0  0  0  0  0  0  0  0
   17.6640    8.2490   -0.8900 H   0  0  0  0  0  0  0  0  0  0  0  0
   -4.4190    5.9990   -0.8900 H   0  0  0  0  0  0  0  0  0  0  0  0
   -5.2890    4.7130    0.0000 H   0  0  0  0  0  0  0  0  0  0  0  0
   -4.4190    5.9990    0.8900 H   0  0  0  0  0  0  0  0  0  0  0  0
  1  2  2  0  0  0  0
  2  3  1  0  0  0  0
  2 23  1  0  0  0  0
  3  4  1  0  0  0  0
  3 24  1  0  0  0  0
  4  5  1  0  0  0  0
  4 25  1  0  0  0  0
  4 26  1  0  0  0  0
  5  6  1  0  0  0  0
  5 27  1  0  0  0  0
  5 28  1  0  0  0  0
  6  7  1  0  0  0  0
  6 29  1  0  0  0  0
  6 30  1  0  0  0  0
  7  8  1  0  0  0  0
  8  9  1  0  0  0  0
  8 31  1  0  0  0  0
  8 32  1  0  0  0  0
  9 10  1  0  0  0  0
  9 33  1  0  0  0  0
  9 34  1  0  0  0  0
 10 11  1  0  0  0  0
 11 12  1  0  0  0  0
 11 35  1  0  0  0  0
 11 36  1  0  0  0  0
 12 13  1  0  0  0  0
 12 37  1  0  0  0  0
 12 38  1  0  0  0  0
 13 14  1  0  0  0  0
 14 15  1  0  0  0  0
 14 39  1  0  0  0  0
 14 40  1  0  0  0  0
 15 16  1  0  0  0  0
 15 41  1  0  0  0  0
 15 42  1  0  0  0  0
 16 17  1  0  0  0  0
 16 43  1  0  0  0  0
 16 44  1  0  0  0  0
 17 18  1  0  0  0  0
 17 45  1  0  0  0  0
 18 19  2  0  0  0  0
 18 20  1  0  0  0  0
 20 21  1  0  0  0  0
 20 46  1  0  0  0  0
 20 47  1  0  0  0  0
 21 22  1  0  0  0  0
 23 48  1  0  0  0  0
 23 49  1  0  0  0  0
 23 50  1  0  0  0  0
M  END
