6y7k_4.pdb
  MOE2019           3D

 28 27  0  0  0  0  0  0  0  0999 V2000
    1.8750    2.7820    0.0000 O   0  0  0  0  0  0  0  0  0  0  0  0
    1.8750    1.2820    0.0000 C   0  0  0  0  0  0  0  0  0  0  0  0
    3.1740    0.5320    0.0000 N   0  0  0  0  0  0  0  0  0  0  0  0
    4.4730    1.2820    0.0000 C   0  0  0  0  0  0  0  0  0  0  0  0
    5.7720    0.5320    0.0000 C   0  0  0  0  0  0  0  0  0  0  0  0
    7.0710    1.2820    0.0000 C   0  0  0  0  0  0  0  0  0  0  0  0
    8.3700    0.5320    0.0000 C   0  0  0  0  0  0  0  0  0  0  0  0
    9.6700    1.2820    0.0000 C   0  0  0  0  0  0  0  0  0  0  0  0
   10.9690    0.5320    0.0000 C   0  0  0  0  0  0  0  0  0  0  0  0
   12.2680    1.2820    0.0000 O   0  0  0  0  0  0  0  0  0  0  0  0
   12.2810    1.8410   -0.7800 H   0  0  0  0  0  0  0  0  0  0  0  0
    0.5760    0.5320    0.0000 C   0  0  0  0  0  0  0  0  0  0  0  0
    3.1740   -0.4780    0.0000 H   0  0  0  0  0  0  0  0  0  0  0  0
    4.4730    1.9110    0.8900 H   0  0  0  0  0  0  0  0  0  0  0  0
    4.4730    1.9110   -0.8900 H   0  0  0  0  0  0  0  0  0  0  0  0
    5.7720   -0.0970   -0.8900 H   0  0  0  0  0  0  0  0  0  0  0  0
    5.7720   -0.0970    0.8900 H   0  0  0  0  0  0  0  0  0  0  0  0
    7.0710    1.9110    0.8900 H   0  0  0  0  0  0  0  0  0  0  0  0
    7.0710    1.9110   -0.8900 H   0  0  0  0  0  0  0  0  0  0  0  0
    8.3700   -0.0970   -0.8900 H   0  0  0  0  0  0  0  0  0  0  0  0
    8.3700   -0.0970    0.8900 H   0  0  0  0  0  0  0  0  0  0  0  0
    9.6700    1.9110    0.8900 H   0  0  0  0  0  0  0  0  0  0  0  0
    9.6700    1.9110   -0.8900 H   0  0  0  0  0  0  0  0  0  0  0  0
   10.9690   -0.0970   -0.8900 H   0  0  0  0  0  0  0  0  0  0  0  0
   10.9690   -0.0970    0.8900 H   0  0  0  0  0  0  0  0  0  0  0  0
    0.5760   -0.0970    0.8900 H   0  0  0  0  0  0  0  0  0  0  0  0
   -0.2940    1.1890    0.0000 H   0  0  0  0  0  0  0  0  0  0  0  0
    0.5760   -0.0970   -0.8900 H   0  0  0  0  0  0  0  0  0  0  0  0
  1  2  2  0  0  0  0
  2  3  1  0  0  0  0
  2 12  1  0  0  0  0
  3  4  1  0  0  0  0
  3 13  1  0  0  0  0
  4  5  1  0  0  0  0
  4 14  1  0  0  0  0
  4 15  1  0  0  0  0
  5  6  1  0  0  0  0
  5 16  1  0  0  0  0
  5 17  1  0  0  0  0
  6  7  1  0  0  0  0
  6 18  1  0  0  0  0
  6 19  1  0  0  0  0
  7  8  1  0  0  0  0
  7 20  1  0  0  0  0
  7 21  1  0  0  0  0
  8  9  1  0  0  0  0
  8 22  1  0  0  0  0
  8 23  1  0  0  0  0
  9 10  1  0  0  0  0
  9 24  1  0  0  0  0
  9 25  1  0  0  0  0
 10 11  1  0  0  0  0
 12 26  1  0  0  0  0
 12 27  1  0  0  0  0
 12 28  1  0  0  0  0
M  END
