6ybk_2.pdb
  MOE2019           3D

 24 23  0  0  0  0  0  0  0  0999 V2000
    5.1570   11.2490    0.0000 C   0  0  0  0  0  0  0  0  0  0  0  0
    6.4560   11.9990    0.0000 C   0  0  0  0  0  0  0  0  0  0  0  0
    7.7550   11.2480    0.0000 C   0  0  0  0  0  0  0  0  0  0  0  0
    7.7540    9.7480    0.0000 O   0  0  0  0  0  0  0  0  0  0  0  0
    9.0540   11.9980    0.0000 N   0  0  0  0  0  0  0  0  0  0  0  0
   10.3530   11.2470    0.0000 C   0  0  0  0  0  0  0  0  0  0  0  0
   11.6520   11.9970    0.0000 C   0  0  0  0  0  0  0  0  0  0  0  0
   12.9510   11.2470    0.0000 C   0  0  0  0  0  0  0  0  0  0  0  0
   14.2500   11.9960    0.0000 C   0  0  0  0  0  0  0  0  0  0  0  0
    5.1570   10.6200   -0.8900 H   0  0  0  0  0  0  0  0  0  0  0  0
    4.2870   11.9060    0.0000 H   0  0  0  0  0  0  0  0  0  0  0  0
    5.1570   10.6200    0.8900 H   0  0  0  0  0  0  0  0  0  0  0  0
    6.4560   12.6280    0.8900 H   0  0  0  0  0  0  0  0  0  0  0  0
    6.4560   12.6280   -0.8900 H   0  0  0  0  0  0  0  0  0  0  0  0
    9.0540   13.0080    0.0000 H   0  0  0  0  0  0  0  0  0  0  0  0
   10.3530   10.6180   -0.8900 H   0  0  0  0  0  0  0  0  0  0  0  0
   10.3530   10.6180    0.8900 H   0  0  0  0  0  0  0  0  0  0  0  0
   11.6520   12.6260    0.8900 H   0  0  0  0  0  0  0  0  0  0  0  0
   11.6520   12.6260   -0.8900 H   0  0  0  0  0  0  0  0  0  0  0  0
   12.9510   10.6180   -0.8900 H   0  0  0  0  0  0  0  0  0  0  0  0
   12.9510   10.6180    0.8900 H   0  0  0  0  0  0  0  0  0  0  0  0
   14.2500   12.6250    0.8900 H   0  0  0  0  0  0  0  0  0  0  0  0
   15.1200   11.3390    0.0000 H   0  0  0  0  0  0  0  0  0  0  0  0
   14.2500   12.6250   -0.8900 H   0  0  0  0  0  0  0  0  0  0  0  0
  1  2  1  0  0  0  0
  1 10  1  0  0  0  0
  1 11  1  0  0  0  0
  1 12  1  0  0  0  0
  2  3  1  0  0  0  0
  2 13  1  0  0  0  0
  2 14  1  0  0  0  0
  3  4  2  0  0  0  0
  3  5  1  0  0  0  0
  5  6  1  0  0  0  0
  5 15  1  0  0  0  0
  6  7  1  0  0  0  0
  6 16  1  0  0  0  0
  6 17  1  0  0  0  0
  7  8  1  0  0  0  0
  7 18  1  0  0  0  0
  7 19  1  0  0  0  0
  8  9  1  0  0  0  0
  8 20  1  0  0  0  0
  8 21  1  0  0  0  0
  9 22  1  0  0  0  0
  9 23  1  0  0  0  0
  9 24  1  0  0  0  0
M  END
