6ybk_8.pdb
  MOE2019           3D

 46 45  0  0  0  0  0  0  0  0999 V2000
    0.7480  -16.9930    0.0000 C   0  0  0  0  0  0  0  0  0  0  0  0
    2.0470  -16.2430    0.0000 C   0  0  0  0  0  0  0  0  0  0  0  0
    3.3470  -16.9930    0.0000 N   0  0  0  0  0  0  0  0  0  0  0  0
    4.6450  -16.2430    0.0000 C   0  0  0  0  0  0  0  0  0  0  0  0
    4.6450  -14.7430    0.0000 O   0  0  0  0  0  0  0  0  0  0  0  0
    5.9450  -16.9930    0.0000 C   0  0  0  0  0  0  0  0  0  0  0  0
    7.2440  -16.2420    0.0000 C   0  0  0  0  0  0  0  0  0  0  0  0
    8.5430  -16.9920    0.0000 C   0  0  0  0  0  0  0  0  0  0  0  0
    9.8420  -16.2420    0.0000 C   0  0  0  0  0  0  0  0  0  0  0  0
   11.1410  -16.9920    0.0000 C   0  0  0  0  0  0  0  0  0  0  0  0
   11.1410  -18.4920    0.0000 O   0  0  0  0  0  0  0  0  0  0  0  0
   12.4400  -16.2420    0.0000 N   0  0  0  0  0  0  0  0  0  0  0  0
   13.7390  -16.9910    0.0000 C   0  0  0  0  0  0  0  0  0  0  0  0
   15.0380  -16.2410    0.0000 C   0  0  0  0  0  0  0  0  0  0  0  0
   16.3370  -16.9910    0.0000 C   0  0  0  0  0  0  0  0  0  0  0  0
   17.6360  -16.2410    0.0000 C   0  0  0  0  0  0  0  0  0  0  0  0
   18.9350  -16.9910    0.0000 C   0  0  0  0  0  0  0  0  0  0  0  0
   20.2340  -16.2400    0.0000 C   0  0  0  0  0  0  0  0  0  0  0  0
    0.7480  -17.6220   -0.8900 H   0  0  0  0  0  0  0  0  0  0  0  0
   -0.1220  -16.3360    0.0000 H   0  0  0  0  0  0  0  0  0  0  0  0
    0.7480  -17.6220    0.8900 H   0  0  0  0  0  0  0  0  0  0  0  0
    2.0470  -15.6140    0.8900 H   0  0  0  0  0  0  0  0  0  0  0  0
    2.0470  -15.6140   -0.8900 H   0  0  0  0  0  0  0  0  0  0  0  0
    3.3470  -18.0030    0.0000 H   0  0  0  0  0  0  0  0  0  0  0  0
    5.9450  -17.6220   -0.8900 H   0  0  0  0  0  0  0  0  0  0  0  0
    5.9450  -17.6220    0.8900 H   0  0  0  0  0  0  0  0  0  0  0  0
    7.2440  -15.6130    0.8900 H   0  0  0  0  0  0  0  0  0  0  0  0
    7.2440  -15.6130   -0.8900 H   0  0  0  0  0  0  0  0  0  0  0  0
    8.5430  -17.6210   -0.8900 H   0  0  0  0  0  0  0  0  0  0  0  0
    8.5430  -17.6210    0.8900 H   0  0  0  0  0  0  0  0  0  0  0  0
    9.8420  -15.6130    0.8900 H   0  0  0  0  0  0  0  0  0  0  0  0
    9.8420  -15.6130   -0.8900 H   0  0  0  0  0  0  0  0  0  0  0  0
   12.4400  -15.2320    0.0000 H   0  0  0  0  0  0  0  0  0  0  0  0
   13.7390  -17.6200   -0.8900 H   0  0  0  0  0  0  0  0  0  0  0  0
   13.7390  -17.6200    0.8900 H   0  0  0  0  0  0  0  0  0  0  0  0
   15.0380  -15.6120    0.8900 H   0  0  0  0  0  0  0  0  0  0  0  0
   15.0380  -15.6120   -0.8900 H   0  0  0  0  0  0  0  0  0  0  0  0
   16.3370  -17.6200   -0.8900 H   0  0  0  0  0  0  0  0  0  0  0  0
   16.3370  -17.6200    0.8900 H   0  0  0  0  0  0  0  0  0  0  0  0
   17.6360  -15.6120    0.8900 H   0  0  0  0  0  0  0  0  0  0  0  0
   17.6360  -15.6120   -0.8900 H   0  0  0  0  0  0  0  0  0  0  0  0
   18.9350  -17.6200   -0.8900 H   0  0  0  0  0  0  0  0  0  0  0  0
   18.9350  -17.6200    0.8900 H   0  0  0  0  0  0  0  0  0  0  0  0
   20.2340  -15.6110    0.8900 H   0  0  0  0  0  0  0  0  0  0  0  0
   21.1040  -16.8970    0.0000 H   0  0  0  0  0  0  0  0  0  0  0  0
   20.2340  -15.6110   -0.8900 H   0  0  0  0  0  0  0  0  0  0  0  0
  1  2  1  0  0  0  0
  1 19  1  0  0  0  0
  1 20  1  0  0  0  0
  1 21  1  0  0  0  0
  2  3  1  0  0  0  0
  2 22  1  0  0  0  0
  2 23  1  0  0  0  0
  3  4  1  0  0  0  0
  3 24  1  0  0  0  0
  4  5  2  0  0  0  0
  4  6  1  0  0  0  0
  6  7  1  0  0  0  0
  6 25  1  0  0  0  0
  6 26  1  0  0  0  0
  7  8  1  0  0  0  0
  7 27  1  0  0  0  0
  7 28  1  0  0  0  0
  8  9  1  0  0  0  0
  8 29  1  0  0  0  0
  8 30  1  0  0  0  0
  9 10  1  0  0  0  0
  9 31  1  0  0  0  0
  9 32  1  0  0  0  0
 10 11  2  0  0  0  0
 10 12  1  0  0  0  0
 12 13  1  0  0  0  0
 12 33  1  0  0  0  0
 13 14  1  0  0  0  0
 13 34  1  0  0  0  0
 13 35  1  0  0  0  0
 14 15  1  0  0  0  0
 14 36  1  0  0  0  0
 14 37  1  0  0  0  0
 15 16  1  0  0  0  0
 15 38  1  0  0  0  0
 15 39  1  0  0  0  0
 16 17  1  0  0  0  0
 16 40  1  0  0  0  0
 16 41  1  0  0  0  0
 17 18  1  0  0  0  0
 17 42  1  0  0  0  0
 17 43  1  0  0  0  0
 18 44  1  0  0  0  0
 18 45  1  0  0  0  0
 18 46  1  0  0  0  0
M  END
