6yoj_8.pdb
  MOE2019           3D

 33 32  0  0  0  0  0  0  0  0999 V2000
    4.0940  -18.8460    0.0000 C   0  0  0  0  0  0  0  0  0  0  0  0
    2.5940  -18.8460    0.0000 C   0  0  0  0  0  0  0  0  0  0  0  0
    1.8440  -20.1450    0.0000 O   0  0  0  0  0  0  0  0  0  0  0  0
    0.3440  -20.1450    0.0000 C   0  0  0  0  0  0  0  0  0  0  0  0
   -0.4060  -21.4440    0.0000 C   0  0  0  0  0  0  0  0  0  0  0  0
   -1.9060  -21.4440    0.0000 O   0  0  0  0  0  0  0  0  0  0  0  0
   -2.6560  -22.7430    0.0000 C   0  0  0  0  0  0  0  0  0  0  0  0
   -4.1560  -22.7430    0.0000 C   0  0  0  0  0  0  0  0  0  0  0  0
   -4.9060  -24.0420    0.0000 C   0  0  0  0  0  0  0  0  0  0  0  0
   -4.1560  -25.3410    0.0000 O   0  0  0  0  0  0  0  0  0  0  0  0
   -6.4060  -24.0420    0.0000 N   0  0  0  0  0  0  0  0  0  0  0  0
   -7.1560  -22.7430    0.0000 C   0  0  0  0  0  0  0  0  0  0  0  0
   -8.6560  -22.7430    0.0000 C   0  0  0  0  0  0  0  0  0  0  0  0
   -9.4060  -21.4440    0.0000 O   0  0  0  0  0  0  0  0  0  0  0  0
   -9.1370  -20.9540    0.7800 H   0  0  0  0  0  0  0  0  0  0  0  0
    4.4090  -19.3910    0.8900 H   0  0  0  0  0  0  0  0  0  0  0  0
    4.5180  -17.8420    0.0000 H   0  0  0  0  0  0  0  0  0  0  0  0
    4.4090  -19.3910   -0.8900 H   0  0  0  0  0  0  0  0  0  0  0  0
    2.2790  -18.3010   -0.8900 H   0  0  0  0  0  0  0  0  0  0  0  0
    2.2790  -18.3010    0.8900 H   0  0  0  0  0  0  0  0  0  0  0  0
    0.0290  -19.6000   -0.8900 H   0  0  0  0  0  0  0  0  0  0  0  0
    0.0290  -19.6000    0.8900 H   0  0  0  0  0  0  0  0  0  0  0  0
   -0.0910  -21.9890    0.8900 H   0  0  0  0  0  0  0  0  0  0  0  0
   -0.0910  -21.9890   -0.8900 H   0  0  0  0  0  0  0  0  0  0  0  0
   -2.3410  -23.2880    0.8900 H   0  0  0  0  0  0  0  0  0  0  0  0
   -2.3410  -23.2880   -0.8900 H   0  0  0  0  0  0  0  0  0  0  0  0
   -4.4710  -22.1980   -0.8900 H   0  0  0  0  0  0  0  0  0  0  0  0
   -4.4710  -22.1980    0.8900 H   0  0  0  0  0  0  0  0  0  0  0  0
   -6.9110  -24.9170    0.0000 H   0  0  0  0  0  0  0  0  0  0  0  0
   -6.8410  -22.1980   -0.8900 H   0  0  0  0  0  0  0  0  0  0  0  0
   -6.8410  -22.1980    0.8900 H   0  0  0  0  0  0  0  0  0  0  0  0
   -8.9710  -23.2880    0.8900 H   0  0  0  0  0  0  0  0  0  0  0  0
   -8.9710  -23.2880   -0.8900 H   0  0  0  0  0  0  0  0  0  0  0  0
  1  2  1  0  0  0  0
  1 16  1  0  0  0  0
  1 17  1  0  0  0  0
  1 18  1  0  0  0  0
  2  3  1  0  0  0  0
  2 19  1  0  0  0  0
  2 20  1  0  0  0  0
  3  4  1  0  0  0  0
  4  5  1  0  0  0  0
  4 21  1  0  0  0  0
  4 22  1  0  0  0  0
  5  6  1  0  0  0  0
  5 23  1  0  0  0  0
  5 24  1  0  0  0  0
  6  7  1  0  0  0  0
  7  8  1  0  0  0  0
  7 25  1  0  0  0  0
  7 26  1  0  0  0  0
  8  9  1  0  0  0  0
  8 27  1  0  0  0  0
  8 28  1  0  0  0  0
  9 10  2  0  0  0  0
  9 11  1  0  0  0  0
 11 12  1  0  0  0  0
 11 29  1  0  0  0  0
 12 13  1  0  0  0  0
 12 30  1  0  0  0  0
 12 31  1  0  0  0  0
 13 14  1  0  0  0  0
 13 32  1  0  0  0  0
 13 33  1  0  0  0  0
 14 15  1  0  0  0  0
M  END
