6z45_11.pdb
  MOE2019           3D

 27 27  0  0  0  0  0  0  0  0999 V2000
   -5.3670   -9.2180    0.0000 O   0  0  0  0  0  0  0  0  0  0  0  0
   -5.2840   -7.7210    0.0000 C   0  0  0  0  0  0  0  0  0  0  0  0
   -6.5390   -6.8990    0.0000 N   0  0  0  0  0  0  0  0  0  0  0  0
   -3.9450   -7.0440    0.0000 C   0  0  0  0  0  0  0  0  0  0  0  0
   -2.6900   -7.8650    0.0000 C   0  0  0  0  0  0  0  0  0  0  0  0
   -1.3510   -7.1890    0.0000 C   0  0  0  0  0  0  0  0  0  0  0  0
   -0.0960   -8.0100    0.0000 C   0  0  0  0  0  0  0  0  0  0  0  0
    1.2430   -7.3340    0.0000 C   0  0  0  0  0  0  0  0  0  0  0  0
    2.4980   -8.1550    0.0000 N   0  0  0  0  0  0  0  0  0  0  0  0
    2.5720   -9.6530    0.0000 N   0  0  0  0  0  0  0  0  0  0  0  0
    4.0190  -10.0470    0.0000 N   0  0  0  0  0  0  0  0  0  0  0  0
    4.8410   -8.7910    0.0000 C   0  0  0  0  0  0  0  0  0  0  0  0
    5.9200   -8.7380    0.0000 H   0  0  0  0  0  0  0  0  0  0  0  0
    3.9010   -7.6220    0.0000 C   0  0  0  0  0  0  0  0  0  0  0  0
   -7.4410   -7.3540    0.0000 H   0  0  0  0  0  0  0  0  0  0  0  0
   -6.4820   -5.8910    0.0000 H   0  0  0  0  0  0  0  0  0  0  0  0
   -3.9100   -6.4160    0.8900 H   0  0  0  0  0  0  0  0  0  0  0  0
   -3.9100   -6.4160   -0.8900 H   0  0  0  0  0  0  0  0  0  0  0  0
   -2.7250   -8.4930   -0.8900 H   0  0  0  0  0  0  0  0  0  0  0  0
   -2.7250   -8.4930    0.8900 H   0  0  0  0  0  0  0  0  0  0  0  0
   -1.3160   -6.5610    0.8900 H   0  0  0  0  0  0  0  0  0  0  0  0
   -1.3160   -6.5610   -0.8900 H   0  0  0  0  0  0  0  0  0  0  0  0
   -0.1310   -8.6380   -0.8900 H   0  0  0  0  0  0  0  0  0  0  0  0
   -0.1310   -8.6380    0.8900 H   0  0  0  0  0  0  0  0  0  0  0  0
    1.2780   -6.7060    0.8900 H   0  0  0  0  0  0  0  0  0  0  0  0
    1.2780   -6.7060   -0.8900 H   0  0  0  0  0  0  0  0  0  0  0  0
    4.1840   -6.5800    0.0000 H   0  0  0  0  0  0  0  0  0  0  0  0
  1  2  2  0  0  0  0
  2  3  1  0  0  0  0
  2  4  1  0  0  0  0
  3 15  1  0  0  0  0
  3 16  1  0  0  0  0
  4  5  1  0  0  0  0
  4 17  1  0  0  0  0
  4 18  1  0  0  0  0
  5  6  1  0  0  0  0
  5 19  1  0  0  0  0
  5 20  1  0  0  0  0
  6  7  1  0  0  0  0
  6 21  1  0  0  0  0
  6 22  1  0  0  0  0
  7  8  1  0  0  0  0
  7 23  1  0  0  0  0
  7 24  1  0  0  0  0
  8  9  1  0  0  0  0
  8 25  1  0  0  0  0
  8 26  1  0  0  0  0
  9 10  1  0  0  0  0
  9 14  1  0  0  0  0
 10 11  2  0  0  0  0
 11 12  1  0  0  0  0
 12 13  1  0  0  0  0
 12 14  2  0  0  0  0
 14 27  1  0  0  0  0
M  END
