6z45_9.pdb
  MOE2019           3D

 28 27  0  0  0  0  0  0  0  0999 V2000
   -1.8420  -10.2970    0.0000 O   0  0  0  0  0  0  0  0  0  0  0  0
   -1.8420   -8.7970    0.0000 C   0  0  0  0  0  0  0  0  0  0  0  0
   -3.1410   -8.0470    0.0000 N   0  0  0  0  0  0  0  0  0  0  0  0
   -0.5430   -8.0470    0.0000 C   0  0  0  0  0  0  0  0  0  0  0  0
    0.7560   -8.7970    0.0000 C   0  0  0  0  0  0  0  0  0  0  0  0
    2.0550   -8.0470    0.0000 C   0  0  0  0  0  0  0  0  0  0  0  0
    3.3540   -8.7970    0.0000 C   0  0  0  0  0  0  0  0  0  0  0  0
    4.6540   -8.0470    0.0000 C   0  0  0  0  0  0  0  0  0  0  0  0
    5.9530   -8.7970    0.0000 C   0  0  0  0  0  0  0  0  0  0  0  0
    7.2520   -8.0470    0.0000 C   0  0  0  0  0  0  0  0  0  0  0  0
    8.5510   -8.7970    0.0000 O   0  0  0  0  0  0  0  0  0  0  0  0
    8.5640   -9.3560    0.7800 H   0  0  0  0  0  0  0  0  0  0  0  0
   -4.0160   -8.5520    0.0000 H   0  0  0  0  0  0  0  0  0  0  0  0
   -3.1410   -7.0370    0.0000 H   0  0  0  0  0  0  0  0  0  0  0  0
   -0.5430   -7.4180    0.8900 H   0  0  0  0  0  0  0  0  0  0  0  0
   -0.5430   -7.4180   -0.8900 H   0  0  0  0  0  0  0  0  0  0  0  0
    0.7560   -9.4260   -0.8900 H   0  0  0  0  0  0  0  0  0  0  0  0
    0.7560   -9.4260    0.8900 H   0  0  0  0  0  0  0  0  0  0  0  0
    2.0550   -7.4180    0.8900 H   0  0  0  0  0  0  0  0  0  0  0  0
    2.0550   -7.4180   -0.8900 H   0  0  0  0  0  0  0  0  0  0  0  0
    3.3540   -9.4260   -0.8900 H   0  0  0  0  0  0  0  0  0  0  0  0
    3.3540   -9.4260    0.8900 H   0  0  0  0  0  0  0  0  0  0  0  0
    4.6540   -7.4180    0.8900 H   0  0  0  0  0  0  0  0  0  0  0  0
    4.6540   -7.4180   -0.8900 H   0  0  0  0  0  0  0  0  0  0  0  0
    5.9530   -9.4260   -0.8900 H   0  0  0  0  0  0  0  0  0  0  0  0
    5.9530   -9.4260    0.8900 H   0  0  0  0  0  0  0  0  0  0  0  0
    7.2520   -7.4180    0.8900 H   0  0  0  0  0  0  0  0  0  0  0  0
    7.2520   -7.4180   -0.8900 H   0  0  0  0  0  0  0  0  0  0  0  0
  1  2  2  0  0  0  0
  2  3  1  0  0  0  0
  2  4  1  0  0  0  0
  3 13  1  0  0  0  0
  3 14  1  0  0  0  0
  4  5  1  0  0  0  0
  4 15  1  0  0  0  0
  4 16  1  0  0  0  0
  5  6  1  0  0  0  0
  5 17  1  0  0  0  0
  5 18  1  0  0  0  0
  6  7  1  0  0  0  0
  6 19  1  0  0  0  0
  6 20  1  0  0  0  0
  7  8  1  0  0  0  0
  7 21  1  0  0  0  0
  7 22  1  0  0  0  0
  8  9  1  0  0  0  0
  8 23  1  0  0  0  0
  8 24  1  0  0  0  0
  9 10  1  0  0  0  0
  9 25  1  0  0  0  0
  9 26  1  0  0  0  0
 10 11  1  0  0  0  0
 10 27  1  0  0  0  0
 10 28  1  0  0  0  0
 11 12  1  0  0  0  0
M  END
