6zwp_1.pdb
  MOE2019           3D

 25 24  0  0  0  0  0  0  0  0999 V2000
   -2.9290  -14.6840    0.0000 C   0  0  0  0  0  0  0  0  0  0  0  0
   -1.6300  -15.4340    0.0000 C   0  0  0  0  0  0  0  0  0  0  0  0
   -0.3310  -14.6840    0.0000 C   0  0  0  0  0  0  0  0  0  0  0  0
    0.9680  -15.4340    0.0000 O   0  0  0  0  0  0  0  0  0  0  0  0
    2.2670  -14.6840    0.0000 C   0  0  0  0  0  0  0  0  0  0  0  0
    3.5660  -15.4340    0.0000 C   0  0  0  0  0  0  0  0  0  0  0  0
    4.8650  -14.6840    0.0000 C   0  0  0  0  0  0  0  0  0  0  0  0
    6.1640  -15.4340    0.0000 O   0  0  0  0  0  0  0  0  0  0  0  0
    7.4630  -14.6840    0.0000 C   0  0  0  0  0  0  0  0  0  0  0  0
   -2.9290  -14.0550   -0.8900 H   0  0  0  0  0  0  0  0  0  0  0  0
   -3.7990  -15.3410    0.0000 H   0  0  0  0  0  0  0  0  0  0  0  0
   -2.9290  -14.0550    0.8900 H   0  0  0  0  0  0  0  0  0  0  0  0
   -1.6300  -16.0630    0.8900 H   0  0  0  0  0  0  0  0  0  0  0  0
   -1.6300  -16.0630   -0.8900 H   0  0  0  0  0  0  0  0  0  0  0  0
   -0.3310  -14.0550    0.8900 H   0  0  0  0  0  0  0  0  0  0  0  0
   -0.3310  -14.0550   -0.8900 H   0  0  0  0  0  0  0  0  0  0  0  0
    2.2670  -14.0550   -0.8900 H   0  0  0  0  0  0  0  0  0  0  0  0
    2.2670  -14.0550    0.8900 H   0  0  0  0  0  0  0  0  0  0  0  0
    3.5660  -16.0630   -0.8900 H   0  0  0  0  0  0  0  0  0  0  0  0
    3.5660  -16.0630    0.8900 H   0  0  0  0  0  0  0  0  0  0  0  0
    4.8650  -14.0550    0.8900 H   0  0  0  0  0  0  0  0  0  0  0  0
    4.8650  -14.0550   -0.8900 H   0  0  0  0  0  0  0  0  0  0  0  0
    7.4630  -14.0550   -0.8900 H   0  0  0  0  0  0  0  0  0  0  0  0
    7.4630  -14.0550    0.8900 H   0  0  0  0  0  0  0  0  0  0  0  0
    8.3330  -15.3410    0.0000 H   0  0  0  0  0  0  0  0  0  0  0  0
  1  2  1  0  0  0  0
  1 10  1  0  0  0  0
  1 11  1  0  0  0  0
  1 12  1  0  0  0  0
  2  3  1  0  0  0  0
  2 13  1  0  0  0  0
  2 14  1  0  0  0  0
  3  4  1  0  0  0  0
  3 15  1  0  0  0  0
  3 16  1  0  0  0  0
  4  5  1  0  0  0  0
  5  6  1  0  0  0  0
  5 17  1  0  0  0  0
  5 18  1  0  0  0  0
  6  7  1  0  0  0  0
  6 19  1  0  0  0  0
  6 20  1  0  0  0  0
  7  8  1  0  0  0  0
  7 21  1  0  0  0  0
  7 22  1  0  0  0  0
  8  9  1  0  0  0  0
  9 23  1  0  0  0  0
  9 24  1  0  0  0  0
  9 25  1  0  0  0  0
M  END
