7nq8_7.pdb
  MOE2019           3D

 11 10  0  0  0  0  0  0  0  0999 V2000
    4.4400  -10.1940    0.0000 C   0  0  0  0  0  0  0  0  0  0  0  0
    5.7400   -9.4460    0.0000 C   0  0  0  0  0  0  0  0  0  0  0  0
    7.0380  -10.1970    0.0000 C   0  0  0  0  0  0  0  0  0  0  0  0
    4.4390  -10.8230   -0.8900 H   0  0  0  0  0  0  0  0  0  0  0  0
    3.5710   -9.5360    0.0000 H   0  0  0  0  0  0  0  0  0  0  0  0
    4.4390  -10.8230    0.8900 H   0  0  0  0  0  0  0  0  0  0  0  0
    5.7410   -8.8170    0.8900 H   0  0  0  0  0  0  0  0  0  0  0  0
    5.7410   -8.8170   -0.8900 H   0  0  0  0  0  0  0  0  0  0  0  0
    7.0370  -10.8260   -0.8900 H   0  0  0  0  0  0  0  0  0  0  0  0
    7.9090   -9.5410    0.0000 H   0  0  0  0  0  0  0  0  0  0  0  0
    7.0370  -10.8260    0.8900 H   0  0  0  0  0  0  0  0  0  0  0  0
  1  2  1  0  0  0  0
  1  4  1  0  0  0  0
  1  5  1  0  0  0  0
  1  6  1  0  0  0  0
  2  3  1  0  0  0  0
  2  7  1  0  0  0  0
  2  8  1  0  0  0  0
  3  9  1  0  0  0  0
  3 10  1  0  0  0  0
  3 11  1  0  0  0  0
M  END
