7nq8_1.pdb
  MOE2019           3D

 22 21  0  0  0  0  0  0  0  0999 V2000
    4.5750    4.4470    0.0000 O   0  0  0  0  0  0  0  0  0  0  0  0
    4.5320    2.9470    0.0000 C   0  0  0  0  0  0  0  0  0  0  0  0
    3.2120    2.2340    0.0000 N   0  0  0  0  0  0  0  0  0  0  0  0
    1.9350    3.0210    0.0000 C   0  0  0  0  0  0  0  0  0  0  0  0
    0.6150    2.3080    0.0000 C   0  0  0  0  0  0  0  0  0  0  0  0
   -0.6620    3.0950    0.0000 C   0  0  0  0  0  0  0  0  0  0  0  0
   -1.9820    2.3820    0.0000 C   0  0  0  0  0  0  0  0  0  0  0  0
    5.8090    2.1610    0.0000 C   0  0  0  0  0  0  0  0  0  0  0  0
    7.1290    2.8740    0.0000 O   0  0  0  0  0  0  0  0  0  0  0  0
    7.1570    3.4320   -0.7800 H   0  0  0  0  0  0  0  0  0  0  0  0
    3.1830    1.2240    0.0000 H   0  0  0  0  0  0  0  0  0  0  0  0
    1.9530    3.6500   -0.8900 H   0  0  0  0  0  0  0  0  0  0  0  0
    1.9530    3.6500    0.8900 H   0  0  0  0  0  0  0  0  0  0  0  0
    0.5970    1.6790    0.8900 H   0  0  0  0  0  0  0  0  0  0  0  0
    0.5970    1.6790   -0.8900 H   0  0  0  0  0  0  0  0  0  0  0  0
   -0.6440    3.7240   -0.8900 H   0  0  0  0  0  0  0  0  0  0  0  0
   -0.6440    3.7240    0.8900 H   0  0  0  0  0  0  0  0  0  0  0  0
   -2.0000    1.7530    0.8900 H   0  0  0  0  0  0  0  0  0  0  0  0
   -2.8320    3.0640    0.0000 H   0  0  0  0  0  0  0  0  0  0  0  0
   -2.0000    1.7530   -0.8900 H   0  0  0  0  0  0  0  0  0  0  0  0
    5.7910    1.5320   -0.8900 H   0  0  0  0  0  0  0  0  0  0  0  0
    5.7910    1.5320    0.8900 H   0  0  0  0  0  0  0  0  0  0  0  0
  1  2  2  0  0  0  0
  2  3  1  0  0  0  0
  2  8  1  0  0  0  0
  3  4  1  0  0  0  0
  3 11  1  0  0  0  0
  4  5  1  0  0  0  0
  4 12  1  0  0  0  0
  4 13  1  0  0  0  0
  5  6  1  0  0  0  0
  5 14  1  0  0  0  0
  5 15  1  0  0  0  0
  6  7  1  0  0  0  0
  6 16  1  0  0  0  0
  6 17  1  0  0  0  0
  7 18  1  0  0  0  0
  7 19  1  0  0  0  0
  7 20  1  0  0  0  0
  8  9  1  0  0  0  0
  8 21  1  0  0  0  0
  8 22  1  0  0  0  0
  9 10  1  0  0  0  0
M  END
