7nq8_6.pdb
  MOE2019           3D

  8  7  0  0  0  0  0  0  0  0999 V2000
    6.5810   -8.1030    0.0000 C   0  0  0  0  0  0  0  0  0  0  0  0
    7.3300   -6.8030    0.0000 C   0  0  0  0  0  0  0  0  0  0  0  0
    6.8960   -8.6480   -0.8900 H   0  0  0  0  0  0  0  0  0  0  0  0
    5.4990   -7.9690    0.0000 H   0  0  0  0  0  0  0  0  0  0  0  0
    6.8960   -8.6480    0.8900 H   0  0  0  0  0  0  0  0  0  0  0  0
    7.0150   -6.2580    0.8900 H   0  0  0  0  0  0  0  0  0  0  0  0
    8.4120   -6.9370    0.0000 H   0  0  0  0  0  0  0  0  0  0  0  0
    7.0150   -6.2580   -0.8900 H   0  0  0  0  0  0  0  0  0  0  0  0
  1  2  1  0  0  0  0
  1  3  1  0  0  0  0
  1  4  1  0  0  0  0
  1  5  1  0  0  0  0
  2  6  1  0  0  0  0
  2  7  1  0  0  0  0
  2  8  1  0  0  0  0
M  END
