1ej1_5.pdb
  MOE2019           3D

 35 34  0  0  0  0  0  0  0  0999 V2000
   -3.6620    3.6140    0.0000 N   0  0  0  0  0  0  0  0  0  0  0  0
   -3.6620    5.1140    0.0000 C   0  0  0  0  0  0  0  0  0  0  0  0
   -4.9610    5.8640    0.0000 O   0  0  0  0  0  0  0  0  0  0  0  0
   -2.3630    5.8640    0.0000 C   0  0  0  0  0  0  0  0  0  0  0  0
   -1.0640    5.1140    0.0000 C   0  0  0  0  0  0  0  0  0  0  0  0
    0.2350    5.8640    0.0000 C   0  0  0  0  0  0  0  0  0  0  0  0
    0.2350    7.3640    0.0000 O   0  0  0  0  0  0  0  0  0  0  0  0
    1.5340    5.1140    0.0000 N   0  0  0  0  0  0  0  0  0  0  0  0
    2.8340    5.8640    0.0000 C   0  0  0  0  0  0  0  0  0  0  0  0
    4.1330    5.1140    0.0000 C   0  0  0  0  0  0  0  0  0  0  0  0
    5.4320    5.8640    0.0000 C   0  0  0  0  0  0  0  0  0  0  0  0
    6.7310    5.1140    0.0000 C   0  0  0  0  0  0  0  0  0  0  0  0
    8.0300    5.8640    0.0000 C   0  0  0  0  0  0  0  0  0  0  0  0
    9.3290    5.1140    0.0000 C   0  0  0  0  0  0  0  0  0  0  0  0
    9.3290    3.6140    0.0000 O   0  0  0  0  0  0  0  0  0  0  0  0
   10.6280    5.8640    0.0000 N   0  0  0  0  0  0  0  0  0  0  0  0
   -2.7870    3.1090    0.0000 H   0  0  0  0  0  0  0  0  0  0  0  0
   -4.5370    3.1090    0.0000 H   0  0  0  0  0  0  0  0  0  0  0  0
   -2.3630    6.4930   -0.8900 H   0  0  0  0  0  0  0  0  0  0  0  0
   -2.3630    6.4930    0.8900 H   0  0  0  0  0  0  0  0  0  0  0  0
   -1.0640    4.4850   -0.8900 H   0  0  0  0  0  0  0  0  0  0  0  0
   -1.0640    4.4850    0.8900 H   0  0  0  0  0  0  0  0  0  0  0  0
    1.5340    4.1040    0.0000 H   0  0  0  0  0  0  0  0  0  0  0  0
    2.8340    6.4930   -0.8900 H   0  0  0  0  0  0  0  0  0  0  0  0
    2.8340    6.4930    0.8900 H   0  0  0  0  0  0  0  0  0  0  0  0
    4.1330    4.4850    0.8900 H   0  0  0  0  0  0  0  0  0  0  0  0
    4.1330    4.4850   -0.8900 H   0  0  0  0  0  0  0  0  0  0  0  0
    5.4320    6.4930   -0.8900 H   0  0  0  0  0  0  0  0  0  0  0  0
    5.4320    6.4930    0.8900 H   0  0  0  0  0  0  0  0  0  0  0  0
    6.7310    4.4850   -0.8900 H   0  0  0  0  0  0  0  0  0  0  0  0
    6.7310    4.4850    0.8900 H   0  0  0  0  0  0  0  0  0  0  0  0
    8.0300    6.4930    0.8900 H   0  0  0  0  0  0  0  0  0  0  0  0
    8.0300    6.4930   -0.8900 H   0  0  0  0  0  0  0  0  0  0  0  0
   10.6280    6.8740    0.0000 H   0  0  0  0  0  0  0  0  0  0  0  0
   11.5030    5.3590    0.0000 H   0  0  0  0  0  0  0  0  0  0  0  0
  1  2  1  0  0  0  0
  1 17  1  0  0  0  0
  1 18  1  0  0  0  0
  2  3  2  0  0  0  0
  2  4  1  0  0  0  0
  4  5  1  0  0  0  0
  4 19  1  0  0  0  0
  4 20  1  0  0  0  0
  5  6  1  0  0  0  0
  5 21  1  0  0  0  0
  5 22  1  0  0  0  0
  6  7  2  0  0  0  0
  6  8  1  0  0  0  0
  8  9  1  0  0  0  0
  8 23  1  0  0  0  0
  9 10  1  0  0  0  0
  9 24  1  0  0  0  0
  9 25  1  0  0  0  0
 10 11  1  0  0  0  0
 10 26  1  0  0  0  0
 10 27  1  0  0  0  0
 11 12  1  0  0  0  0
 11 28  1  0  0  0  0
 11 29  1  0  0  0  0
 12 13  1  0  0  0  0
 12 30  1  0  0  0  0
 12 31  1  0  0  0  0
 13 14  1  0  0  0  0
 13 32  1  0  0  0  0
 13 33  1  0  0  0  0
 14 15  2  0  0  0  0
 14 16  1  0  0  0  0
 16 34  1  0  0  0  0
 16 35  1  0  0  0  0
M  END
