1ej1_16.pdb
  MOE2019           3D

 16 15  0  0  0  0  0  0  0  0999 V2000
    0.1350    3.9160    0.0000 N   0  0  0  0  0  0  0  0  0  0  0  0
    1.4550    4.6280    0.0000 C   0  0  0  0  0  0  0  0  0  0  0  0
    2.7320    3.8410    0.0000 C   0  0  0  0  0  0  0  0  0  0  0  0
    4.0520    4.5530    0.0000 C   0  0  0  0  0  0  0  0  0  0  0  0
    5.3290    3.7650    0.0000 C   0  0  0  0  0  0  0  0  0  0  0  0
    0.1180    3.3330    0.8250 H   0  0  0  0  0  0  0  0  0  0  0  0
   -0.6210    4.5850    0.0310 H   0  0  0  0  0  0  0  0  0  0  0  0
    1.4730    5.2570   -0.8900 H   0  0  0  0  0  0  0  0  0  0  0  0
    1.4730    5.2570    0.8900 H   0  0  0  0  0  0  0  0  0  0  0  0
    2.7140    3.2120    0.8900 H   0  0  0  0  0  0  0  0  0  0  0  0
    2.7140    3.2120   -0.8900 H   0  0  0  0  0  0  0  0  0  0  0  0
    4.0700    5.1820   -0.8900 H   0  0  0  0  0  0  0  0  0  0  0  0
    4.0700    5.1820    0.8900 H   0  0  0  0  0  0  0  0  0  0  0  0
    5.3110    3.1360   -0.8900 H   0  0  0  0  0  0  0  0  0  0  0  0
    5.3110    3.1360    0.8900 H   0  0  0  0  0  0  0  0  0  0  0  0
    6.2170    4.3970    0.0000 H   0  0  0  0  0  0  0  0  0  0  0  0
  1  2  1  0  0  0  0
  1  6  1  0  0  0  0
  1  7  1  0  0  0  0
  2  3  1  0  0  0  0
  2  8  1  0  0  0  0
  2  9  1  0  0  0  0
  3  4  1  0  0  0  0
  3 10  1  0  0  0  0
  3 11  1  0  0  0  0
  4  5  1  0  0  0  0
  4 12  1  0  0  0  0
  4 13  1  0  0  0  0
  5 14  1  0  0  0  0
  5 15  1  0  0  0  0
  5 16  1  0  0  0  0
M  END
