1ej1_15.pdb
  MOE2019           3D

 63 62  0  0  0  0  0  0  0  0999 V2000
  -16.4610  -11.7430    0.0000 N   0  0  0  0  0  0  0  0  0  0  0  0
  -15.1620  -10.9930    0.0000 C   0  0  0  0  0  0  0  0  0  0  0  0
  -13.8630  -11.7430    0.0000 C   0  0  0  0  0  0  0  0  0  0  0  0
  -12.5640  -10.9930    0.0000 O   0  0  0  0  0  0  0  0  0  0  0  0
  -11.2650  -11.7430    0.0000 C   0  0  0  0  0  0  0  0  0  0  0  0
   -9.9660  -10.9930    0.0000 C   0  0  0  0  0  0  0  0  0  0  0  0
   -8.6670  -11.7430    0.0000 O   0  0  0  0  0  0  0  0  0  0  0  0
   -7.3680  -10.9930    0.0000 C   0  0  0  0  0  0  0  0  0  0  0  0
   -6.0690  -11.7430    0.0000 C   0  0  0  0  0  0  0  0  0  0  0  0
   -4.7700  -10.9930    0.0000 O   0  0  0  0  0  0  0  0  0  0  0  0
   -3.4710  -11.7430    0.0000 C   0  0  0  0  0  0  0  0  0  0  0  0
   -2.1720  -10.9930    0.0000 C   0  0  0  0  0  0  0  0  0  0  0  0
   -0.8730  -11.7430    0.0000 O   0  0  0  0  0  0  0  0  0  0  0  0
    0.4260  -10.9930    0.0000 C   0  0  0  0  0  0  0  0  0  0  0  0
    1.7250  -11.7430    0.0000 C   0  0  0  0  0  0  0  0  0  0  0  0
    3.0240  -10.9930    0.0000 O   0  0  0  0  0  0  0  0  0  0  0  0
    4.3230  -11.7430    0.0000 C   0  0  0  0  0  0  0  0  0  0  0  0
    5.6220  -10.9930    0.0000 C   0  0  0  0  0  0  0  0  0  0  0  0
    6.9210  -11.7430    0.0000 O   0  0  0  0  0  0  0  0  0  0  0  0
    8.2200  -10.9930    0.0000 C   0  0  0  0  0  0  0  0  0  0  0  0
    9.5190  -11.7430    0.0000 C   0  0  0  0  0  0  0  0  0  0  0  0
   10.8180  -10.9930    0.0000 O   0  0  0  0  0  0  0  0  0  0  0  0
   12.1170  -11.7430    0.0000 C   0  0  0  0  0  0  0  0  0  0  0  0
   13.4160  -10.9930    0.0000 C   0  0  0  0  0  0  0  0  0  0  0  0
   14.7150  -11.7430    0.0000 C   0  0  0  0  0  0  0  0  0  0  0  0
   14.7150  -13.2430    0.0000 O   0  0  0  0  0  0  0  0  0  0  0  0
   16.0140  -10.9930    0.0000 N   0  0  0  0  0  0  0  0  0  0  0  0
  -16.4610  -12.3260    0.8250 H   0  0  0  0  0  0  0  0  0  0  0  0
  -17.2360  -11.0960    0.0310 H   0  0  0  0  0  0  0  0  0  0  0  0
  -15.1620  -10.3640   -0.8900 H   0  0  0  0  0  0  0  0  0  0  0  0
  -15.1620  -10.3640    0.8900 H   0  0  0  0  0  0  0  0  0  0  0  0
  -13.8630  -12.3720   -0.8900 H   0  0  0  0  0  0  0  0  0  0  0  0
  -13.8630  -12.3720    0.8900 H   0  0  0  0  0  0  0  0  0  0  0  0
  -11.2650  -12.3720    0.8900 H   0  0  0  0  0  0  0  0  0  0  0  0
  -11.2650  -12.3720   -0.8900 H   0  0  0  0  0  0  0  0  0  0  0  0
   -9.9660  -10.3640    0.8900 H   0  0  0  0  0  0  0  0  0  0  0  0
   -9.9660  -10.3640   -0.8900 H   0  0  0  0  0  0  0  0  0  0  0  0
   -7.3680  -10.3640   -0.8900 H   0  0  0  0  0  0  0  0  0  0  0  0
   -7.3680  -10.3640    0.8900 H   0  0  0  0  0  0  0  0  0  0  0  0
   -6.0690  -12.3720   -0.8900 H   0  0  0  0  0  0  0  0  0  0  0  0
   -6.0690  -12.3720    0.8900 H   0  0  0  0  0  0  0  0  0  0  0  0
   -3.4710  -12.3720    0.8900 H   0  0  0  0  0  0  0  0  0  0  0  0
   -3.4710  -12.3720   -0.8900 H   0  0  0  0  0  0  0  0  0  0  0  0
   -2.1720  -10.3640    0.8900 H   0  0  0  0  0  0  0  0  0  0  0  0
   -2.1720  -10.3640   -0.8900 H   0  0  0  0  0  0  0  0  0  0  0  0
    0.4260  -10.3640   -0.8900 H   0  0  0  0  0  0  0  0  0  0  0  0
    0.4260  -10.3640    0.8900 H   0  0  0  0  0  0  0  0  0  0  0  0
    1.7250  -12.3720   -0.8900 H   0  0  0  0  0  0  0  0  0  0  0  0
    1.7250  -12.3720    0.8900 H   0  0  0  0  0  0  0  0  0  0  0  0
    4.3230  -12.3720    0.8900 H   0  0  0  0  0  0  0  0  0  0  0  0
    4.3230  -12.3720   -0.8900 H   0  0  0  0  0  0  0  0  0  0  0  0
    5.6220  -10.3640    0.8900 H   0  0  0  0  0  0  0  0  0  0  0  0
    5.6220  -10.3640   -0.8900 H   0  0  0  0  0  0  0  0  0  0  0  0
    8.2200  -10.3640   -0.8900 H   0  0  0  0  0  0  0  0  0  0  0  0
    8.2200  -10.3640    0.8900 H   0  0  0  0  0  0  0  0  0  0  0  0
    9.5190  -12.3720   -0.8900 H   0  0  0  0  0  0  0  0  0  0  0  0
    9.5190  -12.3720    0.8900 H   0  0  0  0  0  0  0  0  0  0  0  0
   12.1170  -12.3720    0.8900 H   0  0  0  0  0  0  0  0  0  0  0  0
   12.1170  -12.3720   -0.8900 H   0  0  0  0  0  0  0  0  0  0  0  0
   13.4160  -10.3640    0.8900 H   0  0  0  0  0  0  0  0  0  0  0  0
   13.4160  -10.3640   -0.8900 H   0  0  0  0  0  0  0  0  0  0  0  0
   16.0140   -9.9830    0.0000 H   0  0  0  0  0  0  0  0  0  0  0  0
   16.8890  -11.4980    0.0000 H   0  0  0  0  0  0  0  0  0  0  0  0
  1  2  1  0  0  0  0
  1 28  1  0  0  0  0
  1 29  1  0  0  0  0
  2  3  1  0  0  0  0
  2 30  1  0  0  0  0
  2 31  1  0  0  0  0
  3  4  1  0  0  0  0
  3 32  1  0  0  0  0
  3 33  1  0  0  0  0
  4  5  1  0  0  0  0
  5  6  1  0  0  0  0
  5 34  1  0  0  0  0
  5 35  1  0  0  0  0
  6  7  1  0  0  0  0
  6 36  1  0  0  0  0
  6 37  1  0  0  0  0
  7  8  1  0  0  0  0
  8  9  1  0  0  0  0
  8 38  1  0  0  0  0
  8 39  1  0  0  0  0
  9 10  1  0  0  0  0
  9 40  1  0  0  0  0
  9 41  1  0  0  0  0
 10 11  1  0  0  0  0
 11 12  1  0  0  0  0
 11 42  1  0  0  0  0
 11 43  1  0  0  0  0
 12 13  1  0  0  0  0
 12 44  1  0  0  0  0
 12 45  1  0  0  0  0
 13 14  1  0  0  0  0
 14 15  1  0  0  0  0
 14 46  1  0  0  0  0
 14 47  1  0  0  0  0
 15 16  1  0  0  0  0
 15 48  1  0  0  0  0
 15 49  1  0  0  0  0
 16 17  1  0  0  0  0
 17 18  1  0  0  0  0
 17 50  1  0  0  0  0
 17 51  1  0  0  0  0
 18 19  1  0  0  0  0
 18 52  1  0  0  0  0
 18 53  1  0  0  0  0
 19 20  1  0  0  0  0
 20 21  1  0  0  0  0
 20 54  1  0  0  0  0
 20 55  1  0  0  0  0
 21 22  1  0  0  0  0
 21 56  1  0  0  0  0
 21 57  1  0  0  0  0
 22 23  1  0  0  0  0
 23 24  1  0  0  0  0
 23 58  1  0  0  0  0
 23 59  1  0  0  0  0
 24 25  1  0  0  0  0
 24 60  1  0  0  0  0
 24 61  1  0  0  0  0
 25 26  2  0  0  0  0
 25 27  1  0  0  0  0
 27 62  1  0  0  0  0
 27 63  1  0  0  0  0
M  END
