1ej1_2.pdb
  MOE2019           3D

 23 22  0  0  0  0  0  0  0  0999 V2000
   -3.8150   -2.3440    0.0000 N   0  0  0  0  0  0  0  0  0  0  0  0
   -2.3150   -2.3440    0.0000 C   0  0  0  0  0  0  0  0  0  0  0  0
   -1.5650   -1.0450    0.0000 C   0  0  0  0  0  0  0  0  0  0  0  0
   -0.0650   -1.0450    0.0000 C   0  0  0  0  0  0  0  0  0  0  0  0
    0.6850    0.2540    0.0000 C   0  0  0  0  0  0  0  0  0  0  0  0
    2.1850    0.2540    0.0000 C   0  0  0  0  0  0  0  0  0  0  0  0
    2.9350    1.5530    0.0000 C   0  0  0  0  0  0  0  0  0  0  0  0
    2.1850    2.8520    0.0000 O   0  0  0  0  0  0  0  0  0  0  0  0
    4.4350    1.5530    0.0000 N   0  0  0  0  0  0  0  0  0  0  0  0
   -4.1070   -1.8390   -0.8250 H   0  0  0  0  0  0  0  0  0  0  0  0
   -4.1630   -3.2920   -0.0310 H   0  0  0  0  0  0  0  0  0  0  0  0
   -2.0000   -2.8890    0.8900 H   0  0  0  0  0  0  0  0  0  0  0  0
   -2.0000   -2.8890   -0.8900 H   0  0  0  0  0  0  0  0  0  0  0  0
   -1.8800   -0.5000   -0.8900 H   0  0  0  0  0  0  0  0  0  0  0  0
   -1.8800   -0.5000    0.8900 H   0  0  0  0  0  0  0  0  0  0  0  0
    0.2500   -1.5900    0.8900 H   0  0  0  0  0  0  0  0  0  0  0  0
    0.2500   -1.5900   -0.8900 H   0  0  0  0  0  0  0  0  0  0  0  0
    0.3700    0.7990    0.8900 H   0  0  0  0  0  0  0  0  0  0  0  0
    0.3700    0.7990   -0.8900 H   0  0  0  0  0  0  0  0  0  0  0  0
    2.5000   -0.2910   -0.8900 H   0  0  0  0  0  0  0  0  0  0  0  0
    2.5000   -0.2910    0.8900 H   0  0  0  0  0  0  0  0  0  0  0  0
    4.9400    0.6780    0.0000 H   0  0  0  0  0  0  0  0  0  0  0  0
    4.9400    2.4280    0.0000 H   0  0  0  0  0  0  0  0  0  0  0  0
  1  2  1  0  0  0  0
  1 10  1  0  0  0  0
  1 11  1  0  0  0  0
  2  3  1  0  0  0  0
  2 12  1  0  0  0  0
  2 13  1  0  0  0  0
  3  4  1  0  0  0  0
  3 14  1  0  0  0  0
  3 15  1  0  0  0  0
  4  5  1  0  0  0  0
  4 16  1  0  0  0  0
  4 17  1  0  0  0  0
  5  6  1  0  0  0  0
  5 18  1  0  0  0  0
  5 19  1  0  0  0  0
  6  7  1  0  0  0  0
  6 20  1  0  0  0  0
  6 21  1  0  0  0  0
  7  8  2  0  0  0  0
  7  9  1  0  0  0  0
  9 22  1  0  0  0  0
  9 23  1  0  0  0  0
M  END
