1ej1_3.pdb
  MOE2019           3D

 23 22  0  0  0  0  0  0  0  0999 V2000
   -3.5650   -2.6680    0.0000 N   0  0  0  0  0  0  0  0  0  0  0  0
   -2.0650   -2.6680    0.0000 C   0  0  0  0  0  0  0  0  0  0  0  0
   -1.3150   -1.3690    0.0000 C   0  0  0  0  0  0  0  0  0  0  0  0
    0.1850   -1.3690    0.0000 C   0  0  0  0  0  0  0  0  0  0  0  0
    0.9350   -0.0700    0.0000 C   0  0  0  0  0  0  0  0  0  0  0  0
    2.4350   -0.0700    0.0000 C   0  0  0  0  0  0  0  0  0  0  0  0
    3.1850    1.2290    0.0000 C   0  0  0  0  0  0  0  0  0  0  0  0
    2.4350    2.5280    0.0000 O   0  0  0  0  0  0  0  0  0  0  0  0
    4.6850    1.2290    0.0000 N   0  0  0  0  0  0  0  0  0  0  0  0
   -3.8570   -2.1630   -0.8250 H   0  0  0  0  0  0  0  0  0  0  0  0
   -3.9130   -3.6160   -0.0310 H   0  0  0  0  0  0  0  0  0  0  0  0
   -1.7500   -3.2130    0.8900 H   0  0  0  0  0  0  0  0  0  0  0  0
   -1.7500   -3.2130   -0.8900 H   0  0  0  0  0  0  0  0  0  0  0  0
   -1.6300   -0.8240   -0.8900 H   0  0  0  0  0  0  0  0  0  0  0  0
   -1.6300   -0.8240    0.8900 H   0  0  0  0  0  0  0  0  0  0  0  0
    0.5000   -1.9140    0.8900 H   0  0  0  0  0  0  0  0  0  0  0  0
    0.5000   -1.9140   -0.8900 H   0  0  0  0  0  0  0  0  0  0  0  0
    0.6200    0.4750    0.8900 H   0  0  0  0  0  0  0  0  0  0  0  0
    0.6200    0.4750   -0.8900 H   0  0  0  0  0  0  0  0  0  0  0  0
    2.7500   -0.6150   -0.8900 H   0  0  0  0  0  0  0  0  0  0  0  0
    2.7500   -0.6150    0.8900 H   0  0  0  0  0  0  0  0  0  0  0  0
    5.1900    0.3540    0.0000 H   0  0  0  0  0  0  0  0  0  0  0  0
    5.1900    2.1040    0.0000 H   0  0  0  0  0  0  0  0  0  0  0  0
  1  2  1  0  0  0  0
  1 10  1  0  0  0  0
  1 11  1  0  0  0  0
  2  3  1  0  0  0  0
  2 12  1  0  0  0  0
  2 13  1  0  0  0  0
  3  4  1  0  0  0  0
  3 14  1  0  0  0  0
  3 15  1  0  0  0  0
  4  5  1  0  0  0  0
  4 16  1  0  0  0  0
  4 17  1  0  0  0  0
  5  6  1  0  0  0  0
  5 18  1  0  0  0  0
  5 19  1  0  0  0  0
  6  7  1  0  0  0  0
  6 20  1  0  0  0  0
  6 21  1  0  0  0  0
  7  8  2  0  0  0  0
  7  9  1  0  0  0  0
  9 22  1  0  0  0  0
  9 23  1  0  0  0  0
M  END
