1ej1_6.pdb
  MOE2019           3D

 35 34  0  0  0  0  0  0  0  0999 V2000
   -8.1780   -6.1830    0.0000 N   0  0  0  0  0  0  0  0  0  0  0  0
   -6.8790   -6.9330    0.0000 C   0  0  0  0  0  0  0  0  0  0  0  0
   -6.8790   -8.4330    0.0000 O   0  0  0  0  0  0  0  0  0  0  0  0
   -5.5800   -6.1830    0.0000 C   0  0  0  0  0  0  0  0  0  0  0  0
   -4.2810   -6.9330    0.0000 C   0  0  0  0  0  0  0  0  0  0  0  0
   -2.9820   -6.1830    0.0000 C   0  0  0  0  0  0  0  0  0  0  0  0
   -2.9820   -4.6830    0.0000 O   0  0  0  0  0  0  0  0  0  0  0  0
   -1.6830   -6.9330    0.0000 N   0  0  0  0  0  0  0  0  0  0  0  0
   -0.3840   -6.1830    0.0000 C   0  0  0  0  0  0  0  0  0  0  0  0
    0.9150   -6.9330    0.0000 C   0  0  0  0  0  0  0  0  0  0  0  0
    2.2140   -6.1830    0.0000 C   0  0  0  0  0  0  0  0  0  0  0  0
    3.5130   -6.9330    0.0000 C   0  0  0  0  0  0  0  0  0  0  0  0
    4.8120   -6.1830    0.0000 C   0  0  0  0  0  0  0  0  0  0  0  0
    6.1110   -6.9330    0.0000 C   0  0  0  0  0  0  0  0  0  0  0  0
    6.1110   -8.4330    0.0000 O   0  0  0  0  0  0  0  0  0  0  0  0
    7.4100   -6.1830    0.0000 N   0  0  0  0  0  0  0  0  0  0  0  0
   -8.1780   -5.1730    0.0000 H   0  0  0  0  0  0  0  0  0  0  0  0
   -9.0530   -6.6880    0.0000 H   0  0  0  0  0  0  0  0  0  0  0  0
   -5.5800   -5.5540   -0.8900 H   0  0  0  0  0  0  0  0  0  0  0  0
   -5.5800   -5.5540    0.8900 H   0  0  0  0  0  0  0  0  0  0  0  0
   -4.2810   -7.5620   -0.8900 H   0  0  0  0  0  0  0  0  0  0  0  0
   -4.2810   -7.5620    0.8900 H   0  0  0  0  0  0  0  0  0  0  0  0
   -1.6830   -7.9430    0.0000 H   0  0  0  0  0  0  0  0  0  0  0  0
   -0.3840   -5.5540   -0.8900 H   0  0  0  0  0  0  0  0  0  0  0  0
   -0.3840   -5.5540    0.8900 H   0  0  0  0  0  0  0  0  0  0  0  0
    0.9150   -7.5620    0.8900 H   0  0  0  0  0  0  0  0  0  0  0  0
    0.9150   -7.5620   -0.8900 H   0  0  0  0  0  0  0  0  0  0  0  0
    2.2140   -5.5540   -0.8900 H   0  0  0  0  0  0  0  0  0  0  0  0
    2.2140   -5.5540    0.8900 H   0  0  0  0  0  0  0  0  0  0  0  0
    3.5130   -7.5620   -0.8900 H   0  0  0  0  0  0  0  0  0  0  0  0
    3.5130   -7.5620    0.8900 H   0  0  0  0  0  0  0  0  0  0  0  0
    4.8120   -5.5540    0.8900 H   0  0  0  0  0  0  0  0  0  0  0  0
    4.8120   -5.5540   -0.8900 H   0  0  0  0  0  0  0  0  0  0  0  0
    7.4100   -5.1730    0.0000 H   0  0  0  0  0  0  0  0  0  0  0  0
    8.2850   -6.6880    0.0000 H   0  0  0  0  0  0  0  0  0  0  0  0
  1  2  1  0  0  0  0
  1 17  1  0  0  0  0
  1 18  1  0  0  0  0
  2  3  2  0  0  0  0
  2  4  1  0  0  0  0
  4  5  1  0  0  0  0
  4 19  1  0  0  0  0
  4 20  1  0  0  0  0
  5  6  1  0  0  0  0
  5 21  1  0  0  0  0
  5 22  1  0  0  0  0
  6  7  2  0  0  0  0
  6  8  1  0  0  0  0
  8  9  1  0  0  0  0
  8 23  1  0  0  0  0
  9 10  1  0  0  0  0
  9 24  1  0  0  0  0
  9 25  1  0  0  0  0
 10 11  1  0  0  0  0
 10 26  1  0  0  0  0
 10 27  1  0  0  0  0
 11 12  1  0  0  0  0
 11 28  1  0  0  0  0
 11 29  1  0  0  0  0
 12 13  1  0  0  0  0
 12 30  1  0  0  0  0
 12 31  1  0  0  0  0
 13 14  1  0  0  0  0
 13 32  1  0  0  0  0
 13 33  1  0  0  0  0
 14 15  2  0  0  0  0
 14 16  1  0  0  0  0
 16 34  1  0  0  0  0
 16 35  1  0  0  0  0
M  END
