1ej1_10.pdb
  MOE2019           3D

 35 34  0  0  0  0  0  0  0  0999 V2000
    3.3290   -1.1680   -0.5650 N   0  0  0  0  0  0  0  0  0  0  0  0
    2.9240   -2.0930   -0.5540 H   0  0  0  0  0  0  0  0  0  0  0  0
    2.6420   -0.5040   -0.2380 H   0  0  0  0  0  0  0  0  0  0  0  0
    4.5050   -1.0950    0.2920 C   0  0  0  0  0  0  0  0  0  0  0  0
    5.5680   -1.9560   -0.3930 C   0  0  0  0  0  0  0  0  0  0  0  0
    6.7720   -1.9930    0.3690 O   0  0  0  0  0  0  0  0  0  0  0  0
    7.7970   -2.7270   -0.2810 C   0  0  0  0  0  0  0  0  0  0  0  0
    9.0720   -2.6320    0.5510 C   0  0  0  0  0  0  0  0  0  0  0  0
   10.1320   -3.2790   -0.1400 O   0  0  0  0  0  0  0  0  0  0  0  0
   11.3760   -3.1500    0.5340 C   0  0  0  0  0  0  0  0  0  0  0  0
   12.4680   -3.8330   -0.2860 C   0  0  0  0  0  0  0  0  0  0  0  0
   13.7420   -3.4830    0.2400 O   0  0  0  0  0  0  0  0  0  0  0  0
   14.8050   -4.0550   -0.5040 C   0  0  0  0  0  0  0  0  0  0  0  0
   16.0770   -3.5170    0.1670 C   0  0  0  0  0  0  0  0  0  0  0  0
   17.2740   -4.0720   -0.5720 C   0  0  0  0  0  0  0  0  0  0  0  0
   17.1930   -4.8760   -1.4770 O   0  0  0  0  0  0  0  0  0  0  0  0
   18.4960   -3.6010   -0.1620 N   0  0  0  0  0  0  0  0  0  0  0  0
    4.8660   -0.0670    0.3710 H   0  0  0  0  0  0  0  0  0  0  0  0
    4.2840   -1.4820    1.2900 H   0  0  0  0  0  0  0  0  0  0  0  0
    5.7580   -1.5280   -1.3790 H   0  0  0  0  0  0  0  0  0  0  0  0
    5.1730   -2.9650   -0.5140 H   0  0  0  0  0  0  0  0  0  0  0  0
    7.5120   -3.7760   -0.3800 H   0  0  0  0  0  0  0  0  0  0  0  0
    7.9940   -2.3070   -1.2690 H   0  0  0  0  0  0  0  0  0  0  0  0
    8.8990   -3.1050    1.5190 H   0  0  0  0  0  0  0  0  0  0  0  0
    9.3050   -1.5760    0.7010 H   0  0  0  0  0  0  0  0  0  0  0  0
   11.6340   -2.0950    0.6420 H   0  0  0  0  0  0  0  0  0  0  0  0
   11.3300   -3.6130    1.5210 H   0  0  0  0  0  0  0  0  0  0  0  0
   12.3850   -3.4940   -1.3210 H   0  0  0  0  0  0  0  0  0  0  0  0
   12.3180   -4.9130   -0.2470 H   0  0  0  0  0  0  0  0  0  0  0  0
   14.7770   -5.1450   -0.4470 H   0  0  0  0  0  0  0  0  0  0  0  0
   14.7680   -3.7330   -1.5480 H   0  0  0  0  0  0  0  0  0  0  0  0
   16.1100   -3.8620    1.1910 H   0  0  0  0  0  0  0  0  0  0  0  0
   16.0850   -2.4400    0.0930 H   0  0  0  0  0  0  0  0  0  0  0  0
   18.4730   -2.8700    0.5570 H   0  0  0  0  0  0  0  0  0  0  0  0
   19.3630   -3.9520   -0.5440 H   0  0  0  0  0  0  0  0  0  0  0  0
  1  2  1  0  0  0  0
  1  3  1  0  0  0  0
  1  4  1  0  0  0  0
  4  5  1  0  0  0  0
  4 18  1  0  0  0  0
  4 19  1  0  0  0  0
  5  6  1  0  0  0  0
  5 20  1  0  0  0  0
  5 21  1  0  0  0  0
  6  7  1  0  0  0  0
  7  8  1  0  0  0  0
  7 22  1  0  0  0  0
  7 23  1  0  0  0  0
  8  9  1  0  0  0  0
  8 24  1  0  0  0  0
  8 25  1  0  0  0  0
  9 10  1  0  0  0  0
 10 11  1  0  0  0  0
 10 26  1  0  0  0  0
 10 27  1  0  0  0  0
 11 12  1  0  0  0  0
 11 28  1  0  0  0  0
 11 29  1  0  0  0  0
 12 13  1  0  0  0  0
 13 14  1  0  0  0  0
 13 30  1  0  0  0  0
 13 31  1  0  0  0  0
 14 15  1  0  0  0  0
 14 32  1  0  0  0  0
 14 33  1  0  0  0  0
 15 16  2  0  0  0  0
 15 17  1  0  0  0  0
 17 34  1  0  0  0  0
 17 35  1  0  0  0  0
M  END
