1err_3.pdb
  MOE2019           3D

 26 25  0  0  0  0  0  0  0  0999 V2000
   -2.1570    8.1390    0.0000 C   0  0  0  0  0  0  0  0  0  0  0  0
   -0.8580    7.3890    0.0000 O   0  0  0  0  0  0  0  0  0  0  0  0
    0.4410    8.1390    0.0000 C   0  0  0  0  0  0  0  0  0  0  0  0
    1.7400    7.3890    0.0000 C   0  0  0  0  0  0  0  0  0  0  0  0
    3.0390    8.1390    0.0000 O   0  0  0  0  0  0  0  0  0  0  0  0
    4.3380    7.3890    0.0000 C   0  0  0  0  0  0  0  0  0  0  0  0
    5.6370    8.1390    0.0000 C   0  0  0  0  0  0  0  0  0  0  0  0
    6.9360    7.3890    0.0000 O   0  0  0  0  0  0  0  0  0  0  0  0
    8.2350    8.1390    0.0000 C   0  0  0  0  0  0  0  0  0  0  0  0
    9.5340    7.3890    0.0000 C   0  0  0  0  0  0  0  0  0  0  0  0
   -2.1570    8.7680    0.8900 H   0  0  0  0  0  0  0  0  0  0  0  0
   -2.1570    8.7680   -0.8900 H   0  0  0  0  0  0  0  0  0  0  0  0
   -3.0270    7.4820    0.0000 H   0  0  0  0  0  0  0  0  0  0  0  0
    0.4410    8.7680   -0.8900 H   0  0  0  0  0  0  0  0  0  0  0  0
    0.4410    8.7680    0.8900 H   0  0  0  0  0  0  0  0  0  0  0  0
    1.7400    6.7600   -0.8900 H   0  0  0  0  0  0  0  0  0  0  0  0
    1.7400    6.7600    0.8900 H   0  0  0  0  0  0  0  0  0  0  0  0
    4.3380    6.7600    0.8900 H   0  0  0  0  0  0  0  0  0  0  0  0
    4.3380    6.7600   -0.8900 H   0  0  0  0  0  0  0  0  0  0  0  0
    5.6370    8.7680    0.8900 H   0  0  0  0  0  0  0  0  0  0  0  0
    5.6370    8.7680   -0.8900 H   0  0  0  0  0  0  0  0  0  0  0  0
    8.2350    8.7680   -0.8900 H   0  0  0  0  0  0  0  0  0  0  0  0
    8.2350    8.7680    0.8900 H   0  0  0  0  0  0  0  0  0  0  0  0
   10.0790    7.7040    0.8900 H   0  0  0  0  0  0  0  0  0  0  0  0
   10.0790    7.7040   -0.8900 H   0  0  0  0  0  0  0  0  0  0  0  0
    9.4000    6.3070    0.0000 H   0  0  0  0  0  0  0  0  0  0  0  0
  1  2  1  0  0  0  0
  1 11  1  0  0  0  0
  1 12  1  0  0  0  0
  1 13  1  0  0  0  0
  2  3  1  0  0  0  0
  3  4  1  0  0  0  0
  3 14  1  0  0  0  0
  3 15  1  0  0  0  0
  4  5  1  0  0  0  0
  4 16  1  0  0  0  0
  4 17  1  0  0  0  0
  5  6  1  0  0  0  0
  6  7  1  0  0  0  0
  6 18  1  0  0  0  0
  6 19  1  0  0  0  0
  7  8  1  0  0  0  0
  7 20  1  0  0  0  0
  7 21  1  0  0  0  0
  8  9  1  0  0  0  0
  9 10  1  0  0  0  0
  9 22  1  0  0  0  0
  9 23  1  0  0  0  0
 10 24  1  0  0  0  0
 10 25  1  0  0  0  0
 10 26  1  0  0  0  0
M  END
