1err_10.pdb
  MOE2019           3D

 26 25  0  0  0  0  0  0  0  0999 V2000
   11.9750   -3.5380    0.0000 C   0  0  0  0  0  0  0  0  0  0  0  0
   10.6700   -4.2770    0.0000 C   0  0  0  0  0  0  0  0  0  0  0  0
    9.3770   -3.5170    0.0000 C   0  0  0  0  0  0  0  0  0  0  0  0
    8.0720   -4.2570    0.0000 C   0  0  0  0  0  0  0  0  0  0  0  0
    6.7790   -3.4970    0.0000 C   0  0  0  0  0  0  0  0  0  0  0  0
    5.4740   -4.2370    0.0000 C   0  0  0  0  0  0  0  0  0  0  0  0
    4.1810   -3.4760    0.0000 C   0  0  0  0  0  0  0  0  0  0  0  0
    2.8760   -4.2160    0.0000 C   0  0  0  0  0  0  0  0  0  0  0  0
   11.9800   -2.9090    0.8900 H   0  0  0  0  0  0  0  0  0  0  0  0
   11.9800   -2.9090   -0.8900 H   0  0  0  0  0  0  0  0  0  0  0  0
   12.8390   -4.2020    0.0000 H   0  0  0  0  0  0  0  0  0  0  0  0
   10.6650   -4.9060   -0.8900 H   0  0  0  0  0  0  0  0  0  0  0  0
   10.6650   -4.9060    0.8900 H   0  0  0  0  0  0  0  0  0  0  0  0
    9.3820   -2.8880    0.8900 H   0  0  0  0  0  0  0  0  0  0  0  0
    9.3820   -2.8880   -0.8900 H   0  0  0  0  0  0  0  0  0  0  0  0
    8.0670   -4.8860    0.8900 H   0  0  0  0  0  0  0  0  0  0  0  0
    8.0670   -4.8860   -0.8900 H   0  0  0  0  0  0  0  0  0  0  0  0
    6.7840   -2.8680   -0.8900 H   0  0  0  0  0  0  0  0  0  0  0  0
    6.7840   -2.8680    0.8900 H   0  0  0  0  0  0  0  0  0  0  0  0
    5.4690   -4.8660    0.8900 H   0  0  0  0  0  0  0  0  0  0  0  0
    5.4690   -4.8660   -0.8900 H   0  0  0  0  0  0  0  0  0  0  0  0
    4.1860   -2.8470   -0.8900 H   0  0  0  0  0  0  0  0  0  0  0  0
    4.1860   -2.8470    0.8900 H   0  0  0  0  0  0  0  0  0  0  0  0
    2.8710   -4.8450    0.8900 H   0  0  0  0  0  0  0  0  0  0  0  0
    2.8710   -4.8450   -0.8900 H   0  0  0  0  0  0  0  0  0  0  0  0
    2.0120   -3.5520    0.0000 H   0  0  0  0  0  0  0  0  0  0  0  0
  1  2  1  0  0  0  0
  1  9  1  0  0  0  0
  1 10  1  0  0  0  0
  1 11  1  0  0  0  0
  2  3  1  0  0  0  0
  2 12  1  0  0  0  0
  2 13  1  0  0  0  0
  3  4  1  0  0  0  0
  3 14  1  0  0  0  0
  3 15  1  0  0  0  0
  4  5  1  0  0  0  0
  4 16  1  0  0  0  0
  4 17  1  0  0  0  0
  5  6  1  0  0  0  0
  5 18  1  0  0  0  0
  5 19  1  0  0  0  0
  6  7  1  0  0  0  0
  6 20  1  0  0  0  0
  6 21  1  0  0  0  0
  7  8  1  0  0  0  0
  7 22  1  0  0  0  0
  7 23  1  0  0  0  0
  8 24  1  0  0  0  0
  8 25  1  0  0  0  0
  8 26  1  0  0  0  0
M  END
