1err_11.pdb
  MOE2019           3D

 20 19  0  0  0  0  0  0  0  0999 V2000
   -0.8180    6.4110    0.0000 C   0  0  0  0  0  0  0  0  0  0  0  0
    0.0440    5.1830    0.0000 C   0  0  0  0  0  0  0  0  0  0  0  0
    1.5380    5.3160    0.0000 C   0  0  0  0  0  0  0  0  0  0  0  0
    2.4000    4.0880    0.0000 C   0  0  0  0  0  0  0  0  0  0  0  0
    3.8940    4.2200    0.0000 C   0  0  0  0  0  0  0  0  0  0  0  0
    4.7560    2.9930    0.0000 C   0  0  0  0  0  0  0  0  0  0  0  0
   -0.5530    6.9820   -0.8900 H   0  0  0  0  0  0  0  0  0  0  0  0
   -0.5530    6.9820    0.8900 H   0  0  0  0  0  0  0  0  0  0  0  0
   -1.8830    6.1810    0.0000 H   0  0  0  0  0  0  0  0  0  0  0  0
   -0.2210    4.6120    0.8900 H   0  0  0  0  0  0  0  0  0  0  0  0
   -0.2210    4.6120   -0.8900 H   0  0  0  0  0  0  0  0  0  0  0  0
    1.8030    5.8870    0.8900 H   0  0  0  0  0  0  0  0  0  0  0  0
    1.8030    5.8870   -0.8900 H   0  0  0  0  0  0  0  0  0  0  0  0
    2.1350    3.5170   -0.8900 H   0  0  0  0  0  0  0  0  0  0  0  0
    2.1350    3.5170    0.8900 H   0  0  0  0  0  0  0  0  0  0  0  0
    4.1590    4.7910    0.8900 H   0  0  0  0  0  0  0  0  0  0  0  0
    4.1590    4.7910   -0.8900 H   0  0  0  0  0  0  0  0  0  0  0  0
    4.4910    2.4220   -0.8900 H   0  0  0  0  0  0  0  0  0  0  0  0
    4.4910    2.4220    0.8900 H   0  0  0  0  0  0  0  0  0  0  0  0
    5.8210    3.2230    0.0000 H   0  0  0  0  0  0  0  0  0  0  0  0
  1  2  1  0  0  0  0
  1  7  1  0  0  0  0
  1  8  1  0  0  0  0
  1  9  1  0  0  0  0
  2  3  1  0  0  0  0
  2 10  1  0  0  0  0
  2 11  1  0  0  0  0
  3  4  1  0  0  0  0
  3 12  1  0  0  0  0
  3 13  1  0  0  0  0
  4  5  1  0  0  0  0
  4 14  1  0  0  0  0
  4 15  1  0  0  0  0
  5  6  1  0  0  0  0
  5 16  1  0  0  0  0
  5 17  1  0  0  0  0
  6 18  1  0  0  0  0
  6 19  1  0  0  0  0
  6 20  1  0  0  0  0
M  END
