1err_25.pdb
  MOE2019           3D

 17 17  0  0  0  0  0  0  0  0999 V2000
    0.9600    1.4820    0.0000 N   0  0  0  0  0  0  0  0  0  0  0  0
    1.9590    1.6290    0.0000 H   0  0  0  0  0  0  0  0  0  0  0  0
    0.2630    0.1530    0.0000 N   0  0  0  0  0  0  0  0  0  0  0  0
   -1.2150    0.4050    0.0000 C   0  0  0  0  0  0  0  0  0  0  0  0
   -1.4330    1.8890    0.0000 C   0  0  0  0  0  0  0  0  0  0  0  0
   -2.7620    2.5850    0.0000 C   0  0  0  0  0  0  0  0  0  0  0  0
   -4.0900    3.2810    0.0000 C   0  0  0  0  0  0  0  0  0  0  0  0
   -5.4190    3.9780    0.0000 C   0  0  0  0  0  0  0  0  0  0  0  0
   -6.6860    3.1750    0.0000 C   0  0  0  0  0  0  0  0  0  0  0  0
   -0.0890    2.5540    0.0000 C   0  0  0  0  0  0  0  0  0  0  0  0
   -1.9870   -0.3500    0.0000 H   0  0  0  0  0  0  0  0  0  0  0  0
   -5.4450    4.6070   -0.8900 H   0  0  0  0  0  0  0  0  0  0  0  0
   -5.4450    4.6070    0.8900 H   0  0  0  0  0  0  0  0  0  0  0  0
   -6.6600    2.5460    0.8900 H   0  0  0  0  0  0  0  0  0  0  0  0
   -6.6600    2.5460   -0.8900 H   0  0  0  0  0  0  0  0  0  0  0  0
   -7.5820    3.7960    0.0000 H   0  0  0  0  0  0  0  0  0  0  0  0
    0.0920    3.6190    0.0000 H   0  0  0  0  0  0  0  0  0  0  0  0
  1  2  1  0  0  0  0
  1  3  1  0  0  0  0
  1 10  1  0  0  0  0
  3  4  2  0  0  0  0
  4  5  1  0  0  0  0
  4 11  1  0  0  0  0
  5  6  1  0  0  0  0
  5 10  2  0  0  0  0
  6  7  3  0  0  0  0
  7  8  1  0  0  0  0
  8  9  1  0  0  0  0
  8 12  1  0  0  0  0
  8 13  1  0  0  0  0
  9 14  1  0  0  0  0
  9 15  1  0  0  0  0
  9 16  1  0  0  0  0
 10 17  1  0  0  0  0
M  END
