1err_7.pdb
  MOE2019           3D

 14 13  0  0  0  0  0  0  0  0999 V2000
    3.9740   -1.6580    0.0000 C   0  0  0  0  0  0  0  0  0  0  0  0
    2.7490   -2.5230    0.0000 C   0  0  0  0  0  0  0  0  0  0  0  0
    1.3870   -1.8950    0.0000 C   0  0  0  0  0  0  0  0  0  0  0  0
    0.1620   -2.7610    0.0000 C   0  0  0  0  0  0  0  0  0  0  0  0
    3.9170   -1.0310    0.8900 H   0  0  0  0  0  0  0  0  0  0  0  0
    3.9170   -1.0310   -0.8900 H   0  0  0  0  0  0  0  0  0  0  0  0
    4.8990   -2.2340    0.0000 H   0  0  0  0  0  0  0  0  0  0  0  0
    2.8060   -3.1500    0.8900 H   0  0  0  0  0  0  0  0  0  0  0  0
    2.8060   -3.1500   -0.8900 H   0  0  0  0  0  0  0  0  0  0  0  0
    1.3290   -1.2680   -0.8900 H   0  0  0  0  0  0  0  0  0  0  0  0
    1.3290   -1.2680    0.8900 H   0  0  0  0  0  0  0  0  0  0  0  0
   -0.4100   -2.4980   -0.8900 H   0  0  0  0  0  0  0  0  0  0  0  0
   -0.4100   -2.4980    0.8900 H   0  0  0  0  0  0  0  0  0  0  0  0
    0.3960   -3.8260    0.0000 H   0  0  0  0  0  0  0  0  0  0  0  0
  1  2  1  0  0  0  0
  1  5  1  0  0  0  0
  1  6  1  0  0  0  0
  1  7  1  0  0  0  0
  2  3  1  0  0  0  0
  2  8  1  0  0  0  0
  2  9  1  0  0  0  0
  3  4  1  0  0  0  0
  3 10  1  0  0  0  0
  3 11  1  0  0  0  0
  4 12  1  0  0  0  0
  4 13  1  0  0  0  0
  4 14  1  0  0  0  0
M  END
