1err_32.pdb
  MOE2019           3D

 20 19  0  0  0  0  0  0  0  0999 V2000
    3.8960   -3.4650    0.0000 C   0  0  0  0  0  0  0  0  0  0  0  0
    5.1960   -4.2120    0.0000 C   0  0  0  0  0  0  0  0  0  0  0  0
    6.4940   -3.4590    0.0000 C   0  0  0  0  0  0  0  0  0  0  0  0
    7.7940   -4.2060    0.0000 C   0  0  0  0  0  0  0  0  0  0  0  0
    9.0920   -3.4540    0.0000 C   0  0  0  0  0  0  0  0  0  0  0  0
   10.3920   -4.2010    0.0000 C   0  0  0  0  0  0  0  0  0  0  0  0
    3.8950   -2.8360   -0.8900 H   0  0  0  0  0  0  0  0  0  0  0  0
    3.8950   -2.8360    0.8900 H   0  0  0  0  0  0  0  0  0  0  0  0
    3.0270   -4.1240    0.0000 H   0  0  0  0  0  0  0  0  0  0  0  0
    5.1970   -4.8410    0.8900 H   0  0  0  0  0  0  0  0  0  0  0  0
    5.1970   -4.8410   -0.8900 H   0  0  0  0  0  0  0  0  0  0  0  0
    6.4930   -2.8300    0.8900 H   0  0  0  0  0  0  0  0  0  0  0  0
    6.4930   -2.8300   -0.8900 H   0  0  0  0  0  0  0  0  0  0  0  0
    7.7950   -4.8350   -0.8900 H   0  0  0  0  0  0  0  0  0  0  0  0
    7.7950   -4.8350    0.8900 H   0  0  0  0  0  0  0  0  0  0  0  0
    9.0910   -2.8250    0.8900 H   0  0  0  0  0  0  0  0  0  0  0  0
    9.0910   -2.8250   -0.8900 H   0  0  0  0  0  0  0  0  0  0  0  0
   10.3930   -4.8300   -0.8900 H   0  0  0  0  0  0  0  0  0  0  0  0
   10.3930   -4.8300    0.8900 H   0  0  0  0  0  0  0  0  0  0  0  0
   11.2610   -3.5420    0.0000 H   0  0  0  0  0  0  0  0  0  0  0  0
  1  2  1  0  0  0  0
  1  7  1  0  0  0  0
  1  8  1  0  0  0  0
  1  9  1  0  0  0  0
  2  3  1  0  0  0  0
  2 10  1  0  0  0  0
  2 11  1  0  0  0  0
  3  4  1  0  0  0  0
  3 12  1  0  0  0  0
  3 13  1  0  0  0  0
  4  5  1  0  0  0  0
  4 14  1  0  0  0  0
  4 15  1  0  0  0  0
  5  6  1  0  0  0  0
  5 16  1  0  0  0  0
  5 17  1  0  0  0  0
  6 18  1  0  0  0  0
  6 19  1  0  0  0  0
  6 20  1  0  0  0  0
M  END
