1hwk_18.pdb
  MOE2019           3D

 42 42  0  0  0  0  0  0  0  0999 V2000
   -3.0680    8.7980    0.0000 O   0  0  0  0  0  0  0  0  0  0  0  0
   -3.4210    9.6910    0.0000 H   0  0  0  0  0  0  0  0  0  0  0  0
   -1.5710    8.9020    0.0000 C   0  0  0  0  0  0  0  0  0  0  0  0
   -0.7330    7.6580    0.0000 C   0  0  0  0  0  0  0  0  0  0  0  0
    0.7640    7.7630    0.0000 C   0  0  0  0  0  0  0  0  0  0  0  0
    1.6020    6.5190    0.0000 C   0  0  0  0  0  0  0  0  0  0  0  0
    3.0990    6.6230    0.0000 C   0  0  0  0  0  0  0  0  0  0  0  0
    3.8940    7.8950    0.0000 N   0  0  0  0  0  0  0  0  0  0  0  0
    5.3490    7.5320    0.0000 N   0  0  0  0  0  0  0  0  0  0  0  0
    5.4530    6.0350    0.0000 N   0  0  0  0  0  0  0  0  0  0  0  0
    6.7250    5.2400    0.0000 C   0  0  0  0  0  0  0  0  0  0  0  0
    8.0500    5.9440    0.0000 C   0  0  0  0  0  0  0  0  0  0  0  0
    9.3220    5.1490    0.0000 C   0  0  0  0  0  0  0  0  0  0  0  0
   10.6460    5.8530    0.0000 C   0  0  0  0  0  0  0  0  0  0  0  0
   11.9180    5.0580    0.0000 C   0  0  0  0  0  0  0  0  0  0  0  0
   13.2430    5.7620    0.0000 C   0  0  0  0  0  0  0  0  0  0  0  0
   14.5150    4.9670    0.0000 C   0  0  0  0  0  0  0  0  0  0  0  0
    4.0630    5.4740    0.0000 C   0  0  0  0  0  0  0  0  0  0  0  0
   -1.2950    9.4670   -0.8900 H   0  0  0  0  0  0  0  0  0  0  0  0
   -1.2950    9.4670    0.8900 H   0  0  0  0  0  0  0  0  0  0  0  0
   -1.0090    7.0920    0.8900 H   0  0  0  0  0  0  0  0  0  0  0  0
   -1.0090    7.0920   -0.8900 H   0  0  0  0  0  0  0  0  0  0  0  0
    1.0400    8.3290   -0.8900 H   0  0  0  0  0  0  0  0  0  0  0  0
    1.0400    8.3290    0.8900 H   0  0  0  0  0  0  0  0  0  0  0  0
    1.3260    5.9540   -0.8900 H   0  0  0  0  0  0  0  0  0  0  0  0
    1.3260    5.9540    0.8900 H   0  0  0  0  0  0  0  0  0  0  0  0
    6.7030    4.6110    0.8900 H   0  0  0  0  0  0  0  0  0  0  0  0
    6.7030    4.6110   -0.8900 H   0  0  0  0  0  0  0  0  0  0  0  0
    8.0720    6.5730   -0.8900 H   0  0  0  0  0  0  0  0  0  0  0  0
    8.0720    6.5730    0.8900 H   0  0  0  0  0  0  0  0  0  0  0  0
    9.3000    4.5200    0.8900 H   0  0  0  0  0  0  0  0  0  0  0  0
    9.3000    4.5200   -0.8900 H   0  0  0  0  0  0  0  0  0  0  0  0
   10.6680    6.4820   -0.8900 H   0  0  0  0  0  0  0  0  0  0  0  0
   10.6680    6.4820    0.8900 H   0  0  0  0  0  0  0  0  0  0  0  0
   11.8960    4.4290   -0.8900 H   0  0  0  0  0  0  0  0  0  0  0  0
   11.8960    4.4290    0.8900 H   0  0  0  0  0  0  0  0  0  0  0  0
   13.2650    6.3910    0.8900 H   0  0  0  0  0  0  0  0  0  0  0  0
   13.2650    6.3910   -0.8900 H   0  0  0  0  0  0  0  0  0  0  0  0
   14.4930    4.3380   -0.8900 H   0  0  0  0  0  0  0  0  0  0  0  0
   14.4930    4.3380    0.8900 H   0  0  0  0  0  0  0  0  0  0  0  0
   15.4070    5.5940    0.0000 H   0  0  0  0  0  0  0  0  0  0  0  0
    3.8010    4.4260    0.0000 H   0  0  0  0  0  0  0  0  0  0  0  0
  1  2  1  0  0  0  0
  1  3  1  0  0  0  0
  3  4  1  0  0  0  0
  3 19  1  0  0  0  0
  3 20  1  0  0  0  0
  4  5  1  0  0  0  0
  4 21  1  0  0  0  0
  4 22  1  0  0  0  0
  5  6  1  0  0  0  0
  5 23  1  0  0  0  0
  5 24  1  0  0  0  0
  6  7  1  0  0  0  0
  6 25  1  0  0  0  0
  6 26  1  0  0  0  0
  7  8  1  0  0  0  0
  7 18  2  0  0  0  0
  8  9  2  0  0  0  0
  9 10  1  0  0  0  0
 10 11  1  0  0  0  0
 10 18  1  0  0  0  0
 11 12  1  0  0  0  0
 11 27  1  0  0  0  0
 11 28  1  0  0  0  0
 12 13  1  0  0  0  0
 12 29  1  0  0  0  0
 12 30  1  0  0  0  0
 13 14  1  0  0  0  0
 13 31  1  0  0  0  0
 13 32  1  0  0  0  0
 14 15  1  0  0  0  0
 14 33  1  0  0  0  0
 14 34  1  0  0  0  0
 15 16  1  0  0  0  0
 15 35  1  0  0  0  0
 15 36  1  0  0  0  0
 16 17  1  0  0  0  0
 16 37  1  0  0  0  0
 16 38  1  0  0  0  0
 17 39  1  0  0  0  0
 17 40  1  0  0  0  0
 17 41  1  0  0  0  0
 18 42  1  0  0  0  0
M  END
