1hwk_26.pdb
  MOE2019           3D

 57 57  0  0  0  0  0  0  0  0999 V2000
   -2.3120   14.5780    0.0000 O   0  0  0  0  0  0  0  0  0  0  0  0
   -2.6920   13.6970    0.0000 H   0  0  0  0  0  0  0  0  0  0  0  0
   -0.8190   14.4280    0.0000 C   0  0  0  0  0  0  0  0  0  0  0  0
    0.0570   15.6450    0.0000 C   0  0  0  0  0  0  0  0  0  0  0  0
    1.5490   15.4950    0.0000 C   0  0  0  0  0  0  0  0  0  0  0  0
    2.4260   16.7120    0.0000 C   0  0  0  0  0  0  0  0  0  0  0  0
    3.9180   16.5620    0.0000 C   0  0  0  0  0  0  0  0  0  0  0  0
    4.6740   15.2670    0.0000 N   0  0  0  0  0  0  0  0  0  0  0  0
    6.1400   15.5850    0.0000 N   0  0  0  0  0  0  0  0  0  0  0  0
    6.2900   17.0780    0.0000 N   0  0  0  0  0  0  0  0  0  0  0  0
    7.5850   17.8330    0.0000 C   0  0  0  0  0  0  0  0  0  0  0  0
    8.8880   17.0890    0.0000 C   0  0  0  0  0  0  0  0  0  0  0  0
   10.1830   17.8450    0.0000 O   0  0  0  0  0  0  0  0  0  0  0  0
   11.4860   17.1010    0.0000 C   0  0  0  0  0  0  0  0  0  0  0  0
   12.7820   17.8570    0.0000 C   0  0  0  0  0  0  0  0  0  0  0  0
   14.0840   17.1130    0.0000 O   0  0  0  0  0  0  0  0  0  0  0  0
   15.3800   17.8680    0.0000 C   0  0  0  0  0  0  0  0  0  0  0  0
   16.6820   17.1240    0.0000 C   0  0  0  0  0  0  0  0  0  0  0  0
   17.9780   17.8800    0.0000 O   0  0  0  0  0  0  0  0  0  0  0  0
   19.2800   17.1360    0.0000 C   0  0  0  0  0  0  0  0  0  0  0  0
   20.5760   17.8920    0.0000 C   0  0  0  0  0  0  0  0  0  0  0  0
   21.8780   17.1470    0.0000 O   0  0  0  0  0  0  0  0  0  0  0  0
   23.1740   17.9030    0.0000 C   0  0  0  0  0  0  0  0  0  0  0  0
   24.4760   17.1590    0.0000 C   0  0  0  0  0  0  0  0  0  0  0  0
   24.4790   16.5300   -0.8900 H   0  0  0  0  0  0  0  0  0  0  0  0
   24.4790   16.5300    0.8900 H   0  0  0  0  0  0  0  0  0  0  0  0
    4.9170   17.6820    0.0000 C   0  0  0  0  0  0  0  0  0  0  0  0
   -0.5600   13.8540    0.8900 H   0  0  0  0  0  0  0  0  0  0  0  0
   -0.5600   13.8540   -0.8900 H   0  0  0  0  0  0  0  0  0  0  0  0
   -0.2020   16.2190   -0.8900 H   0  0  0  0  0  0  0  0  0  0  0  0
   -0.2020   16.2190    0.8900 H   0  0  0  0  0  0  0  0  0  0  0  0
    1.8070   14.9210    0.8900 H   0  0  0  0  0  0  0  0  0  0  0  0
    1.8070   14.9210   -0.8900 H   0  0  0  0  0  0  0  0  0  0  0  0
    2.1680   17.2860    0.8900 H   0  0  0  0  0  0  0  0  0  0  0  0
    2.1680   17.2860   -0.8900 H   0  0  0  0  0  0  0  0  0  0  0  0
    7.5820   18.4620   -0.8900 H   0  0  0  0  0  0  0  0  0  0  0  0
    7.5820   18.4620    0.8900 H   0  0  0  0  0  0  0  0  0  0  0  0
    8.8910   16.4600   -0.8900 H   0  0  0  0  0  0  0  0  0  0  0  0
    8.8910   16.4600    0.8900 H   0  0  0  0  0  0  0  0  0  0  0  0
   11.4890   16.4720    0.8900 H   0  0  0  0  0  0  0  0  0  0  0  0
   11.4890   16.4720   -0.8900 H   0  0  0  0  0  0  0  0  0  0  0  0
   12.7790   18.4860    0.8900 H   0  0  0  0  0  0  0  0  0  0  0  0
   12.7790   18.4860   -0.8900 H   0  0  0  0  0  0  0  0  0  0  0  0
   15.3770   18.4970   -0.8900 H   0  0  0  0  0  0  0  0  0  0  0  0
   15.3770   18.4970    0.8900 H   0  0  0  0  0  0  0  0  0  0  0  0
   16.6850   16.4950   -0.8900 H   0  0  0  0  0  0  0  0  0  0  0  0
   16.6850   16.4950    0.8900 H   0  0  0  0  0  0  0  0  0  0  0  0
   19.2830   16.5070    0.8900 H   0  0  0  0  0  0  0  0  0  0  0  0
   19.2830   16.5070   -0.8900 H   0  0  0  0  0  0  0  0  0  0  0  0
   20.5730   18.5210    0.8900 H   0  0  0  0  0  0  0  0  0  0  0  0
   20.5730   18.5210   -0.8900 H   0  0  0  0  0  0  0  0  0  0  0  0
   23.1710   18.5320   -0.8900 H   0  0  0  0  0  0  0  0  0  0  0  0
   23.1710   18.5320    0.8900 H   0  0  0  0  0  0  0  0  0  0  0  0
    4.6880   18.7370    0.0000 H   0  0  0  0  0  0  0  0  0  0  0  0
   25.7720   17.9150    0.0000 N   0  0  0  0  0  0  0  0  0  0  0  0
   25.7670   18.9250    0.0000 H   0  0  0  0  0  0  0  0  0  0  0  0
   26.6490   17.4140    0.0000 H   0  0  0  0  0  0  0  0  0  0  0  0
  1  2  1  0  0  0  0
  1  3  1  0  0  0  0
  3  4  1  0  0  0  0
  3 28  1  0  0  0  0
  3 29  1  0  0  0  0
  4  5  1  0  0  0  0
  4 30  1  0  0  0  0
  4 31  1  0  0  0  0
  5  6  1  0  0  0  0
  5 32  1  0  0  0  0
  5 33  1  0  0  0  0
  6  7  1  0  0  0  0
  6 34  1  0  0  0  0
  6 35  1  0  0  0  0
  7  8  1  0  0  0  0
  7 27  2  0  0  0  0
  8  9  2  0  0  0  0
  9 10  1  0  0  0  0
 10 11  1  0  0  0  0
 10 27  1  0  0  0  0
 11 12  1  0  0  0  0
 11 36  1  0  0  0  0
 11 37  1  0  0  0  0
 12 13  1  0  0  0  0
 12 38  1  0  0  0  0
 12 39  1  0  0  0  0
 13 14  1  0  0  0  0
 14 15  1  0  0  0  0
 14 40  1  0  0  0  0
 14 41  1  0  0  0  0
 15 16  1  0  0  0  0
 15 42  1  0  0  0  0
 15 43  1  0  0  0  0
 16 17  1  0  0  0  0
 17 18  1  0  0  0  0
 17 44  1  0  0  0  0
 17 45  1  0  0  0  0
 18 19  1  0  0  0  0
 18 46  1  0  0  0  0
 18 47  1  0  0  0  0
 19 20  1  0  0  0  0
 20 21  1  0  0  0  0
 20 48  1  0  0  0  0
 20 49  1  0  0  0  0
 21 22  1  0  0  0  0
 21 50  1  0  0  0  0
 21 51  1  0  0  0  0
 22 23  1  0  0  0  0
 23 24  1  0  0  0  0
 23 52  1  0  0  0  0
 23 53  1  0  0  0  0
 24 25  1  0  0  0  0
 24 26  1  0  0  0  0
 24 55  1  0  0  0  0
 27 54  1  0  0  0  0
 55 56  1  0  0  0  0
 55 57  1  0  0  0  0
M  END
