1hwk_12.pdb
  MOE2019           3D

 58 58  0  0  0  0  0  0  0  0999 V2000
   -1.1990   16.5800    0.0000 O   0  0  0  0  0  0  0  0  0  0  0  0
   -1.8440   15.8690    0.0000 H   0  0  0  0  0  0  0  0  0  0  0  0
    0.1650   15.9550    0.0000 C   0  0  0  0  0  0  0  0  0  0  0  0
    1.3870   16.8240    0.0000 C   0  0  0  0  0  0  0  0  0  0  0  0
    2.7510   16.1990    0.0000 C   0  0  0  0  0  0  0  0  0  0  0  0
    3.9740   17.0680    0.0000 C   0  0  0  0  0  0  0  0  0  0  0  0
    5.3380   16.4430    0.0000 C   0  0  0  0  0  0  0  0  0  0  0  0
    6.5610   17.3120    0.0000 C   0  0  0  0  0  0  0  0  0  0  0  0
    6.5760   18.8120    0.0000 N   0  0  0  0  0  0  0  0  0  0  0  0
    8.0080   19.2610    0.0000 N   0  0  0  0  0  0  0  0  0  0  0  0
    8.8770   18.0380    0.0000 N   0  0  0  0  0  0  0  0  0  0  0  0
   10.3770   18.0220    0.0000 C   0  0  0  0  0  0  0  0  0  0  0  0
   11.1130   16.7150    0.0000 C   0  0  0  0  0  0  0  0  0  0  0  0
   12.6130   16.6990    0.0000 O   0  0  0  0  0  0  0  0  0  0  0  0
   13.3490   15.3920    0.0000 C   0  0  0  0  0  0  0  0  0  0  0  0
   14.8490   15.3760    0.0000 C   0  0  0  0  0  0  0  0  0  0  0  0
   15.5850   14.0690    0.0000 O   0  0  0  0  0  0  0  0  0  0  0  0
   17.0850   14.0530    0.0000 C   0  0  0  0  0  0  0  0  0  0  0  0
   17.8210   12.7470    0.0000 C   0  0  0  0  0  0  0  0  0  0  0  0
   19.3210   12.7310    0.0000 O   0  0  0  0  0  0  0  0  0  0  0  0
   20.0570   11.4240    0.0000 C   0  0  0  0  0  0  0  0  0  0  0  0
   21.5570   11.4080    0.0000 C   0  0  0  0  0  0  0  0  0  0  0  0
   22.2930   10.1010    0.0000 O   0  0  0  0  0  0  0  0  0  0  0  0
   23.7930   10.0850    0.0000 C   0  0  0  0  0  0  0  0  0  0  0  0
   24.5290    8.7780    0.0000 C   0  0  0  0  0  0  0  0  0  0  0  0
    7.9820   16.8340    0.0000 C   0  0  0  0  0  0  0  0  0  0  0  0
    0.2240   15.3280    0.8900 H   0  0  0  0  0  0  0  0  0  0  0  0
    0.2240   15.3280   -0.8900 H   0  0  0  0  0  0  0  0  0  0  0  0
    1.3280   17.4510   -0.8900 H   0  0  0  0  0  0  0  0  0  0  0  0
    1.3280   17.4510    0.8900 H   0  0  0  0  0  0  0  0  0  0  0  0
    2.8100   15.5720    0.8900 H   0  0  0  0  0  0  0  0  0  0  0  0
    2.8100   15.5720   -0.8900 H   0  0  0  0  0  0  0  0  0  0  0  0
    3.9150   17.6950    0.8900 H   0  0  0  0  0  0  0  0  0  0  0  0
    3.9150   17.6950   -0.8900 H   0  0  0  0  0  0  0  0  0  0  0  0
    5.3970   15.8160   -0.8900 H   0  0  0  0  0  0  0  0  0  0  0  0
    5.3970   15.8160    0.8900 H   0  0  0  0  0  0  0  0  0  0  0  0
   10.6970   18.5640   -0.8900 H   0  0  0  0  0  0  0  0  0  0  0  0
   10.6970   18.5640    0.8900 H   0  0  0  0  0  0  0  0  0  0  0  0
   10.7930   16.1730   -0.8900 H   0  0  0  0  0  0  0  0  0  0  0  0
   10.7930   16.1730    0.8900 H   0  0  0  0  0  0  0  0  0  0  0  0
   13.0290   14.8500    0.8900 H   0  0  0  0  0  0  0  0  0  0  0  0
   13.0290   14.8500   -0.8900 H   0  0  0  0  0  0  0  0  0  0  0  0
   15.1690   15.9180    0.8900 H   0  0  0  0  0  0  0  0  0  0  0  0
   15.1690   15.9180   -0.8900 H   0  0  0  0  0  0  0  0  0  0  0  0
   17.4050   14.5950   -0.8900 H   0  0  0  0  0  0  0  0  0  0  0  0
   17.4050   14.5950    0.8900 H   0  0  0  0  0  0  0  0  0  0  0  0
   17.5010   12.2050   -0.8900 H   0  0  0  0  0  0  0  0  0  0  0  0
   17.5010   12.2050    0.8900 H   0  0  0  0  0  0  0  0  0  0  0  0
   19.7370   10.8820    0.8900 H   0  0  0  0  0  0  0  0  0  0  0  0
   19.7370   10.8820   -0.8900 H   0  0  0  0  0  0  0  0  0  0  0  0
   21.8770   11.9500    0.8900 H   0  0  0  0  0  0  0  0  0  0  0  0
   21.8770   11.9500   -0.8900 H   0  0  0  0  0  0  0  0  0  0  0  0
   24.1130   10.6270   -0.8900 H   0  0  0  0  0  0  0  0  0  0  0  0
   24.1130   10.6270    0.8900 H   0  0  0  0  0  0  0  0  0  0  0  0
   24.2090    8.2360   -0.8900 H   0  0  0  0  0  0  0  0  0  0  0  0
   24.2090    8.2360    0.8900 H   0  0  0  0  0  0  0  0  0  0  0  0
   25.6120    8.9020    0.0000 H   0  0  0  0  0  0  0  0  0  0  0  0
    8.3050   15.8030    0.0000 H   0  0  0  0  0  0  0  0  0  0  0  0
  1  2  1  0  0  0  0
  1  3  1  0  0  0  0
  3  4  1  0  0  0  0
  3 27  1  0  0  0  0
  3 28  1  0  0  0  0
  4  5  1  0  0  0  0
  4 29  1  0  0  0  0
  4 30  1  0  0  0  0
  5  6  1  0  0  0  0
  5 31  1  0  0  0  0
  5 32  1  0  0  0  0
  6  7  1  0  0  0  0
  6 33  1  0  0  0  0
  6 34  1  0  0  0  0
  7  8  1  0  0  0  0
  7 35  1  0  0  0  0
  7 36  1  0  0  0  0
  8  9  1  0  0  0  0
  8 26  2  0  0  0  0
  9 10  2  0  0  0  0
 10 11  1  0  0  0  0
 11 12  1  0  0  0  0
 11 26  1  0  0  0  0
 12 13  1  0  0  0  0
 12 37  1  0  0  0  0
 12 38  1  0  0  0  0
 13 14  1  0  0  0  0
 13 39  1  0  0  0  0
 13 40  1  0  0  0  0
 14 15  1  0  0  0  0
 15 16  1  0  0  0  0
 15 41  1  0  0  0  0
 15 42  1  0  0  0  0
 16 17  1  0  0  0  0
 16 43  1  0  0  0  0
 16 44  1  0  0  0  0
 17 18  1  0  0  0  0
 18 19  1  0  0  0  0
 18 45  1  0  0  0  0
 18 46  1  0  0  0  0
 19 20  1  0  0  0  0
 19 47  1  0  0  0  0
 19 48  1  0  0  0  0
 20 21  1  0  0  0  0
 21 22  1  0  0  0  0
 21 49  1  0  0  0  0
 21 50  1  0  0  0  0
 22 23  1  0  0  0  0
 22 51  1  0  0  0  0
 22 52  1  0  0  0  0
 23 24  1  0  0  0  0
 24 25  1  0  0  0  0
 24 53  1  0  0  0  0
 24 54  1  0  0  0  0
 25 55  1  0  0  0  0
 25 56  1  0  0  0  0
 25 57  1  0  0  0  0
 26 58  1  0  0  0  0
M  END
