1hwk_37.pdb
  MOE2019           3D

 43 43  0  0  0  0  0  0  0  0999 V2000
    3.4770   11.3190    0.0000 O   0  0  0  0  0  0  0  0  0  0  0  0
    2.8330   10.6070    0.0000 H   0  0  0  0  0  0  0  0  0  0  0  0
    4.8420   10.6970    0.0000 C   0  0  0  0  0  0  0  0  0  0  0  0
    6.0630   11.5690    0.0000 C   0  0  0  0  0  0  0  0  0  0  0  0
    7.4280   10.9470    0.0000 C   0  0  0  0  0  0  0  0  0  0  0  0
    8.6490   11.8190    0.0000 C   0  0  0  0  0  0  0  0  0  0  0  0
    8.6620   13.3190    0.0000 N   0  0  0  0  0  0  0  0  0  0  0  0
   10.0920   13.7710    0.0000 N   0  0  0  0  0  0  0  0  0  0  0  0
   10.9640   12.5500    0.0000 N   0  0  0  0  0  0  0  0  0  0  0  0
   12.4640   12.5370    0.0000 C   0  0  0  0  0  0  0  0  0  0  0  0
   13.2030   11.2320    0.0000 C   0  0  0  0  0  0  0  0  0  0  0  0
   14.7030   11.2200    0.0000 C   0  0  0  0  0  0  0  0  0  0  0  0
   15.4420    9.9140    0.0000 C   0  0  0  0  0  0  0  0  0  0  0  0
   16.9420    9.9020    0.0000 C   0  0  0  0  0  0  0  0  0  0  0  0
   17.6810    8.5970    0.0000 O   0  0  0  0  0  0  0  0  0  0  0  0
   19.1810    8.5840    0.0000 C   0  0  0  0  0  0  0  0  0  0  0  0
   19.9200    7.2790    0.0000 C   0  0  0  0  0  0  0  0  0  0  0  0
   19.6010    6.7370   -0.8900 H   0  0  0  0  0  0  0  0  0  0  0  0
   19.6010    6.7370    0.8900 H   0  0  0  0  0  0  0  0  0  0  0  0
   10.0720   11.3440    0.0000 C   0  0  0  0  0  0  0  0  0  0  0  0
    4.9030   10.0710    0.8900 H   0  0  0  0  0  0  0  0  0  0  0  0
    4.9030   10.0710   -0.8900 H   0  0  0  0  0  0  0  0  0  0  0  0
    6.0020   12.1950   -0.8900 H   0  0  0  0  0  0  0  0  0  0  0  0
    6.0020   12.1950    0.8900 H   0  0  0  0  0  0  0  0  0  0  0  0
    7.4890   10.3210   -0.8900 H   0  0  0  0  0  0  0  0  0  0  0  0
    7.4890   10.3210    0.8900 H   0  0  0  0  0  0  0  0  0  0  0  0
   12.7830   13.0790   -0.8900 H   0  0  0  0  0  0  0  0  0  0  0  0
   12.7830   13.0790    0.8900 H   0  0  0  0  0  0  0  0  0  0  0  0
   12.8840   10.6900    0.8900 H   0  0  0  0  0  0  0  0  0  0  0  0
   12.8840   10.6900   -0.8900 H   0  0  0  0  0  0  0  0  0  0  0  0
   15.0220   11.7620    0.8900 H   0  0  0  0  0  0  0  0  0  0  0  0
   15.0220   11.7620   -0.8900 H   0  0  0  0  0  0  0  0  0  0  0  0
   15.1230    9.3720   -0.8900 H   0  0  0  0  0  0  0  0  0  0  0  0
   15.1230    9.3720    0.8900 H   0  0  0  0  0  0  0  0  0  0  0  0
   17.2610   10.4440    0.8900 H   0  0  0  0  0  0  0  0  0  0  0  0
   17.2610   10.4440   -0.8900 H   0  0  0  0  0  0  0  0  0  0  0  0
   19.5000    9.1260   -0.8900 H   0  0  0  0  0  0  0  0  0  0  0  0
   19.5000    9.1260    0.8900 H   0  0  0  0  0  0  0  0  0  0  0  0
   10.3970   10.3140    0.0000 H   0  0  0  0  0  0  0  0  0  0  0  0
   21.4200    7.2670    0.0000 C   0  0  0  0  0  0  0  0  0  0  0  0
   21.7390    7.8090   -0.8900 H   0  0  0  0  0  0  0  0  0  0  0  0
   21.7390    7.8090    0.8900 H   0  0  0  0  0  0  0  0  0  0  0  0
   21.8360    6.2600    0.0000 H   0  0  0  0  0  0  0  0  0  0  0  0
  1  2  1  0  0  0  0
  1  3  1  0  0  0  0
  3  4  1  0  0  0  0
  3 21  1  0  0  0  0
  3 22  1  0  0  0  0
  4  5  1  0  0  0  0
  4 23  1  0  0  0  0
  4 24  1  0  0  0  0
  5  6  1  0  0  0  0
  5 25  1  0  0  0  0
  5 26  1  0  0  0  0
  6  7  1  0  0  0  0
  6 20  2  0  0  0  0
  7  8  2  0  0  0  0
  8  9  1  0  0  0  0
  9 10  1  0  0  0  0
  9 20  1  0  0  0  0
 10 11  1  0  0  0  0
 10 27  1  0  0  0  0
 10 28  1  0  0  0  0
 11 12  1  0  0  0  0
 11 29  1  0  0  0  0
 11 30  1  0  0  0  0
 12 13  1  0  0  0  0
 12 31  1  0  0  0  0
 12 32  1  0  0  0  0
 13 14  1  0  0  0  0
 13 33  1  0  0  0  0
 13 34  1  0  0  0  0
 14 15  1  0  0  0  0
 14 35  1  0  0  0  0
 14 36  1  0  0  0  0
 15 16  1  0  0  0  0
 16 17  1  0  0  0  0
 16 37  1  0  0  0  0
 16 38  1  0  0  0  0
 17 18  1  0  0  0  0
 17 19  1  0  0  0  0
 17 40  1  0  0  0  0
 20 39  1  0  0  0  0
 40 41  1  0  0  0  0
 40 42  1  0  0  0  0
 40 43  1  0  0  0  0
M  END
