1hwk_35.pdb
  MOE2019           3D

 37 37  0  0  0  0  0  0  0  0999 V2000
   -0.8970   -7.6260    0.0000 O   0  0  0  0  0  0  0  0  0  0  0  0
   -1.5370   -6.9100    0.0000 H   0  0  0  0  0  0  0  0  0  0  0  0
    0.4710   -7.0110    0.0000 C   0  0  0  0  0  0  0  0  0  0  0  0
    1.6880   -7.8880    0.0000 C   0  0  0  0  0  0  0  0  0  0  0  0
    3.0560   -7.2730    0.0000 C   0  0  0  0  0  0  0  0  0  0  0  0
    4.2730   -8.1500    0.0000 C   0  0  0  0  0  0  0  0  0  0  0  0
    4.2780   -9.6500    0.0000 N   0  0  0  0  0  0  0  0  0  0  0  0
    5.7060  -10.1090    0.0000 N   0  0  0  0  0  0  0  0  0  0  0  0
    6.5840   -8.8920    0.0000 N   0  0  0  0  0  0  0  0  0  0  0  0
    8.0840   -8.8870    0.0000 C   0  0  0  0  0  0  0  0  0  0  0  0
    8.8290   -7.5850    0.0000 C   0  0  0  0  0  0  0  0  0  0  0  0
   10.3290   -7.5800    0.0000 C   0  0  0  0  0  0  0  0  0  0  0  0
   11.0750   -6.2780    0.0000 O   0  0  0  0  0  0  0  0  0  0  0  0
   12.5750   -6.2730    0.0000 C   0  0  0  0  0  0  0  0  0  0  0  0
   13.3200   -4.9710    0.0000 C   0  0  0  0  0  0  0  0  0  0  0  0
   14.8200   -4.9660    0.0000 C   0  0  0  0  0  0  0  0  0  0  0  0
    5.6980   -7.6820    0.0000 C   0  0  0  0  0  0  0  0  0  0  0  0
    0.5340   -6.3850   -0.8900 H   0  0  0  0  0  0  0  0  0  0  0  0
    0.5340   -6.3850    0.8900 H   0  0  0  0  0  0  0  0  0  0  0  0
    1.6250   -8.5140    0.8900 H   0  0  0  0  0  0  0  0  0  0  0  0
    1.6250   -8.5140   -0.8900 H   0  0  0  0  0  0  0  0  0  0  0  0
    3.1190   -6.6470    0.8900 H   0  0  0  0  0  0  0  0  0  0  0  0
    3.1190   -6.6470   -0.8900 H   0  0  0  0  0  0  0  0  0  0  0  0
    8.4010   -9.4310    0.8900 H   0  0  0  0  0  0  0  0  0  0  0  0
    8.4010   -9.4310   -0.8900 H   0  0  0  0  0  0  0  0  0  0  0  0
    8.5120   -7.0410    0.8900 H   0  0  0  0  0  0  0  0  0  0  0  0
    8.5120   -7.0410   -0.8900 H   0  0  0  0  0  0  0  0  0  0  0  0
   10.6450   -8.1240   -0.8900 H   0  0  0  0  0  0  0  0  0  0  0  0
   10.6450   -8.1240    0.8900 H   0  0  0  0  0  0  0  0  0  0  0  0
   12.8920   -6.8170    0.8900 H   0  0  0  0  0  0  0  0  0  0  0  0
   12.8920   -6.8170   -0.8900 H   0  0  0  0  0  0  0  0  0  0  0  0
   13.0030   -4.4270   -0.8900 H   0  0  0  0  0  0  0  0  0  0  0  0
   13.0030   -4.4270    0.8900 H   0  0  0  0  0  0  0  0  0  0  0  0
   15.1370   -5.5100   -0.8900 H   0  0  0  0  0  0  0  0  0  0  0  0
   15.1370   -5.5100    0.8900 H   0  0  0  0  0  0  0  0  0  0  0  0
   15.2400   -3.9600    0.0000 H   0  0  0  0  0  0  0  0  0  0  0  0
    6.0280   -6.6540    0.0000 H   0  0  0  0  0  0  0  0  0  0  0  0
  1  2  1  0  0  0  0
  1  3  1  0  0  0  0
  3  4  1  0  0  0  0
  3 18  1  0  0  0  0
  3 19  1  0  0  0  0
  4  5  1  0  0  0  0
  4 20  1  0  0  0  0
  4 21  1  0  0  0  0
  5  6  1  0  0  0  0
  5 22  1  0  0  0  0
  5 23  1  0  0  0  0
  6  7  1  0  0  0  0
  6 17  2  0  0  0  0
  7  8  2  0  0  0  0
  8  9  1  0  0  0  0
  9 10  1  0  0  0  0
  9 17  1  0  0  0  0
 10 11  1  0  0  0  0
 10 24  1  0  0  0  0
 10 25  1  0  0  0  0
 11 12  1  0  0  0  0
 11 26  1  0  0  0  0
 11 27  1  0  0  0  0
 12 13  1  0  0  0  0
 12 28  1  0  0  0  0
 12 29  1  0  0  0  0
 13 14  1  0  0  0  0
 14 15  1  0  0  0  0
 14 30  1  0  0  0  0
 14 31  1  0  0  0  0
 15 16  1  0  0  0  0
 15 32  1  0  0  0  0
 15 33  1  0  0  0  0
 16 34  1  0  0  0  0
 16 35  1  0  0  0  0
 16 36  1  0  0  0  0
 17 37  1  0  0  0  0
M  END
