1hwk_24.pdb
  MOE2019           3D

 53 53  0  0  0  0  0  0  0  0999 V2000
    0.1790  -10.8300    0.0000 O   0  0  0  0  0  0  0  0  0  0  0  0
   -0.4820  -11.5260    0.0000 H   0  0  0  0  0  0  0  0  0  0  0  0
    1.5280  -11.4850    0.0000 C   0  0  0  0  0  0  0  0  0  0  0  0
    2.7700  -10.6450    0.0000 C   0  0  0  0  0  0  0  0  0  0  0  0
    4.1190  -11.3000    0.0000 C   0  0  0  0  0  0  0  0  0  0  0  0
    5.3620  -10.4590    0.0000 C   0  0  0  0  0  0  0  0  0  0  0  0
    6.7110  -11.1150    0.0000 C   0  0  0  0  0  0  0  0  0  0  0  0
    7.9530  -10.2740    0.0000 C   0  0  0  0  0  0  0  0  0  0  0  0
    8.0030   -8.7750    0.0000 N   0  0  0  0  0  0  0  0  0  0  0  0
    9.4440   -8.3590    0.0000 N   0  0  0  0  0  0  0  0  0  0  0  0
   10.2850   -9.6010    0.0000 N   0  0  0  0  0  0  0  0  0  0  0  0
   11.7840   -9.6510    0.0000 C   0  0  0  0  0  0  0  0  0  0  0  0
   12.4910  -10.9750    0.0000 C   0  0  0  0  0  0  0  0  0  0  0  0
   13.9900  -11.0250    0.0000 O   0  0  0  0  0  0  0  0  0  0  0  0
   14.6960  -12.3480    0.0000 C   0  0  0  0  0  0  0  0  0  0  0  0
   16.1950  -12.3980    0.0000 C   0  0  0  0  0  0  0  0  0  0  0  0
   16.9010  -13.7210    0.0000 O   0  0  0  0  0  0  0  0  0  0  0  0
   18.4010  -13.7710    0.0000 C   0  0  0  0  0  0  0  0  0  0  0  0
   19.1070  -15.0940    0.0000 C   0  0  0  0  0  0  0  0  0  0  0  0
   20.6060  -15.1440    0.0000 O   0  0  0  0  0  0  0  0  0  0  0  0
   21.3120  -16.4680    0.0000 C   0  0  0  0  0  0  0  0  0  0  0  0
   22.8120  -16.5180    0.0000 C   0  0  0  0  0  0  0  0  0  0  0  0
   23.1450  -15.9840    0.8900 H   0  0  0  0  0  0  0  0  0  0  0  0
   23.1450  -15.9840   -0.8900 H   0  0  0  0  0  0  0  0  0  0  0  0
    9.3630  -10.7850    0.0000 C   0  0  0  0  0  0  0  0  0  0  0  0
    1.5730  -12.1130    0.8900 H   0  0  0  0  0  0  0  0  0  0  0  0
    1.5730  -12.1130   -0.8900 H   0  0  0  0  0  0  0  0  0  0  0  0
    2.7250  -10.0170   -0.8900 H   0  0  0  0  0  0  0  0  0  0  0  0
    2.7250  -10.0170    0.8900 H   0  0  0  0  0  0  0  0  0  0  0  0
    4.1640  -11.9280    0.8900 H   0  0  0  0  0  0  0  0  0  0  0  0
    4.1640  -11.9280   -0.8900 H   0  0  0  0  0  0  0  0  0  0  0  0
    5.3170   -9.8310    0.8900 H   0  0  0  0  0  0  0  0  0  0  0  0
    5.3170   -9.8310   -0.8900 H   0  0  0  0  0  0  0  0  0  0  0  0
    6.7560  -11.7430   -0.8900 H   0  0  0  0  0  0  0  0  0  0  0  0
    6.7560  -11.7430    0.8900 H   0  0  0  0  0  0  0  0  0  0  0  0
   12.1170   -9.1170   -0.8900 H   0  0  0  0  0  0  0  0  0  0  0  0
   12.1170   -9.1170    0.8900 H   0  0  0  0  0  0  0  0  0  0  0  0
   12.1580  -11.5090   -0.8900 H   0  0  0  0  0  0  0  0  0  0  0  0
   12.1580  -11.5090    0.8900 H   0  0  0  0  0  0  0  0  0  0  0  0
   14.3630  -12.8820    0.8900 H   0  0  0  0  0  0  0  0  0  0  0  0
   14.3630  -12.8820   -0.8900 H   0  0  0  0  0  0  0  0  0  0  0  0
   16.5280  -11.8640    0.8900 H   0  0  0  0  0  0  0  0  0  0  0  0
   16.5280  -11.8640   -0.8900 H   0  0  0  0  0  0  0  0  0  0  0  0
   18.7340  -13.2370   -0.8900 H   0  0  0  0  0  0  0  0  0  0  0  0
   18.7340  -13.2370    0.8900 H   0  0  0  0  0  0  0  0  0  0  0  0
   18.7740  -15.6280   -0.8900 H   0  0  0  0  0  0  0  0  0  0  0  0
   18.7740  -15.6280    0.8900 H   0  0  0  0  0  0  0  0  0  0  0  0
   20.9790  -17.0020    0.8900 H   0  0  0  0  0  0  0  0  0  0  0  0
   20.9790  -17.0020   -0.8900 H   0  0  0  0  0  0  0  0  0  0  0  0
    9.6620  -11.8230    0.0000 H   0  0  0  0  0  0  0  0  0  0  0  0
   23.5180  -17.8410    0.0000 N   0  0  0  0  0  0  0  0  0  0  0  0
   22.9840  -18.6980    0.0000 H   0  0  0  0  0  0  0  0  0  0  0  0
   24.5270  -17.8750    0.0000 H   0  0  0  0  0  0  0  0  0  0  0  0
  1  2  1  0  0  0  0
  1  3  1  0  0  0  0
  3  4  1  0  0  0  0
  3 26  1  0  0  0  0
  3 27  1  0  0  0  0
  4  5  1  0  0  0  0
  4 28  1  0  0  0  0
  4 29  1  0  0  0  0
  5  6  1  0  0  0  0
  5 30  1  0  0  0  0
  5 31  1  0  0  0  0
  6  7  1  0  0  0  0
  6 32  1  0  0  0  0
  6 33  1  0  0  0  0
  7  8  1  0  0  0  0
  7 34  1  0  0  0  0
  7 35  1  0  0  0  0
  8  9  1  0  0  0  0
  8 25  2  0  0  0  0
  9 10  2  0  0  0  0
 10 11  1  0  0  0  0
 11 12  1  0  0  0  0
 11 25  1  0  0  0  0
 12 13  1  0  0  0  0
 12 36  1  0  0  0  0
 12 37  1  0  0  0  0
 13 14  1  0  0  0  0
 13 38  1  0  0  0  0
 13 39  1  0  0  0  0
 14 15  1  0  0  0  0
 15 16  1  0  0  0  0
 15 40  1  0  0  0  0
 15 41  1  0  0  0  0
 16 17  1  0  0  0  0
 16 42  1  0  0  0  0
 16 43  1  0  0  0  0
 17 18  1  0  0  0  0
 18 19  1  0  0  0  0
 18 44  1  0  0  0  0
 18 45  1  0  0  0  0
 19 20  1  0  0  0  0
 19 46  1  0  0  0  0
 19 47  1  0  0  0  0
 20 21  1  0  0  0  0
 21 22  1  0  0  0  0
 21 48  1  0  0  0  0
 21 49  1  0  0  0  0
 22 23  1  0  0  0  0
 22 24  1  0  0  0  0
 22 51  1  0  0  0  0
 25 50  1  0  0  0  0
 51 52  1  0  0  0  0
 51 53  1  0  0  0  0
M  END
