1xkk_2.pdb
  MOE2019           3D

 24 23  0  0  0  0  0  0  0  0999 V2000
   12.7500   -7.2570    0.0000 O   0  0  0  0  0  0  0  0  0  0  0  0
   13.0190   -7.7470   -0.7800 H   0  0  0  0  0  0  0  0  0  0  0  0
   13.5000   -5.9580    0.0000 C   0  0  0  0  0  0  0  0  0  0  0  0
   15.0000   -5.9580    0.0000 C   0  0  0  0  0  0  0  0  0  0  0  0
   15.7500   -4.6590    0.0000 O   0  0  0  0  0  0  0  0  0  0  0  0
   17.2500   -4.6590    0.0000 C   0  0  0  0  0  0  0  0  0  0  0  0
   18.0000   -3.3600    0.0000 C   0  0  0  0  0  0  0  0  0  0  0  0
   19.5000   -3.3600    0.0000 O   0  0  0  0  0  0  0  0  0  0  0  0
   20.2500   -2.0610    0.0000 C   0  0  0  0  0  0  0  0  0  0  0  0
   21.7500   -2.0610    0.0000 C   0  0  0  0  0  0  0  0  0  0  0  0
   22.5000   -0.7620    0.0000 O   0  0  0  0  0  0  0  0  0  0  0  0
   23.4380   -0.9680    0.0000 H   0  0  0  0  0  0  0  0  0  0  0  0
   13.1850   -5.4130   -0.8900 H   0  0  0  0  0  0  0  0  0  0  0  0
   13.1850   -5.4130    0.8900 H   0  0  0  0  0  0  0  0  0  0  0  0
   15.3150   -6.5030   -0.8900 H   0  0  0  0  0  0  0  0  0  0  0  0
   15.3150   -6.5030    0.8900 H   0  0  0  0  0  0  0  0  0  0  0  0
   17.5650   -5.2040    0.8900 H   0  0  0  0  0  0  0  0  0  0  0  0
   17.5650   -5.2040   -0.8900 H   0  0  0  0  0  0  0  0  0  0  0  0
   17.6850   -2.8150    0.8900 H   0  0  0  0  0  0  0  0  0  0  0  0
   17.6850   -2.8150   -0.8900 H   0  0  0  0  0  0  0  0  0  0  0  0
   19.9350   -1.5160   -0.8900 H   0  0  0  0  0  0  0  0  0  0  0  0
   19.9350   -1.5160    0.8900 H   0  0  0  0  0  0  0  0  0  0  0  0
   22.0650   -2.6060   -0.8900 H   0  0  0  0  0  0  0  0  0  0  0  0
   22.0650   -2.6060    0.8900 H   0  0  0  0  0  0  0  0  0  0  0  0
  1  2  1  0  0  0  0
  1  3  1  0  0  0  0
  3  4  1  0  0  0  0
  3 13  1  0  0  0  0
  3 14  1  0  0  0  0
  4  5  1  0  0  0  0
  4 15  1  0  0  0  0
  4 16  1  0  0  0  0
  5  6  1  0  0  0  0
  6  7  1  0  0  0  0
  6 17  1  0  0  0  0
  6 18  1  0  0  0  0
  7  8  1  0  0  0  0
  7 19  1  0  0  0  0
  7 20  1  0  0  0  0
  8  9  1  0  0  0  0
  9 10  1  0  0  0  0
  9 21  1  0  0  0  0
  9 22  1  0  0  0  0
 10 11  1  0  0  0  0
 10 23  1  0  0  0  0
 10 24  1  0  0  0  0
 11 12  1  0  0  0  0
M  END
