2euf_19.pdb
  MOE2019           3D

 45 45  0  0  0  0  0  0  0  0999 V2000
    9.5440  -10.5320    0.0000 C   0  0  0  0  0  0  0  0  0  0  0  0
    8.6890  -11.7640    0.0000 C   0  0  0  0  0  0  0  0  0  0  0  0
    9.3290  -13.1210    0.0000 O   0  0  0  0  0  0  0  0  0  0  0  0
    7.1940  -11.6400    0.0000 N   0  0  0  0  0  0  0  0  0  0  0  0
    6.3390  -12.8720    0.0000 C   0  0  0  0  0  0  0  0  0  0  0  0
    4.8440  -12.7480    0.0000 C   0  0  0  0  0  0  0  0  0  0  0  0
    3.9890  -13.9800    0.0000 O   0  0  0  0  0  0  0  0  0  0  0  0
    2.4940  -13.8560    0.0000 C   0  0  0  0  0  0  0  0  0  0  0  0
    1.6390  -15.0880    0.0000 C   0  0  0  0  0  0  0  0  0  0  0  0
    0.1440  -14.9640    0.0000 O   0  0  0  0  0  0  0  0  0  0  0  0
   -0.7110  -16.1960    0.0000 C   0  0  0  0  0  0  0  0  0  0  0  0
   -2.2060  -16.0720    0.0000 C   0  0  0  0  0  0  0  0  0  0  0  0
   -3.0610  -17.3040    0.0000 O   0  0  0  0  0  0  0  0  0  0  0  0
   -4.5560  -17.1800    0.0000 C   0  0  0  0  0  0  0  0  0  0  0  0
   -5.4110  -18.4120    0.0000 C   0  0  0  0  0  0  0  0  0  0  0  0
   -6.9060  -18.2880    0.0000 N   0  0  0  0  0  0  0  0  0  0  0  0
   -7.6840  -17.0050    0.0000 N   0  0  0  0  0  0  0  0  0  0  0  0
   -9.1440  -17.3490    0.0000 N   0  0  0  0  0  0  0  0  0  0  0  0
   -9.2680  -18.8440    0.0000 C   0  0  0  0  0  0  0  0  0  0  0  0
  -10.5510  -19.6220    0.0000 C   0  0  0  0  0  0  0  0  0  0  0  0
   -7.8850  -19.4240    0.0000 C   0  0  0  0  0  0  0  0  0  0  0  0
    9.2760   -9.9630   -0.8900 H   0  0  0  0  0  0  0  0  0  0  0  0
    9.2760   -9.9630    0.8900 H   0  0  0  0  0  0  0  0  0  0  0  0
   10.6110  -10.7560    0.0000 H   0  0  0  0  0  0  0  0  0  0  0  0
    6.7630  -10.7260    0.0000 H   0  0  0  0  0  0  0  0  0  0  0  0
    6.6070  -13.4410   -0.8900 H   0  0  0  0  0  0  0  0  0  0  0  0
    6.6070  -13.4410    0.8900 H   0  0  0  0  0  0  0  0  0  0  0  0
    4.5760  -12.1790   -0.8900 H   0  0  0  0  0  0  0  0  0  0  0  0
    4.5760  -12.1790    0.8900 H   0  0  0  0  0  0  0  0  0  0  0  0
    2.2260  -13.2870    0.8900 H   0  0  0  0  0  0  0  0  0  0  0  0
    2.2260  -13.2870   -0.8900 H   0  0  0  0  0  0  0  0  0  0  0  0
    1.9070  -15.6570    0.8900 H   0  0  0  0  0  0  0  0  0  0  0  0
    1.9070  -15.6570   -0.8900 H   0  0  0  0  0  0  0  0  0  0  0  0
   -0.4430  -16.7650   -0.8900 H   0  0  0  0  0  0  0  0  0  0  0  0
   -0.4430  -16.7650    0.8900 H   0  0  0  0  0  0  0  0  0  0  0  0
   -2.4740  -15.5030   -0.8900 H   0  0  0  0  0  0  0  0  0  0  0  0
   -2.4740  -15.5030    0.8900 H   0  0  0  0  0  0  0  0  0  0  0  0
   -4.8240  -16.6110    0.8900 H   0  0  0  0  0  0  0  0  0  0  0  0
   -4.8240  -16.6110   -0.8900 H   0  0  0  0  0  0  0  0  0  0  0  0
   -5.1430  -18.9810    0.8900 H   0  0  0  0  0  0  0  0  0  0  0  0
   -5.1430  -18.9810   -0.8900 H   0  0  0  0  0  0  0  0  0  0  0  0
  -10.5370  -20.2510    0.8900 H   0  0  0  0  0  0  0  0  0  0  0  0
  -10.5370  -20.2510   -0.8900 H   0  0  0  0  0  0  0  0  0  0  0  0
  -11.4350  -18.9840    0.0000 H   0  0  0  0  0  0  0  0  0  0  0  0
   -7.6380  -20.4750    0.0000 H   0  0  0  0  0  0  0  0  0  0  0  0
  1  2  1  0  0  0  0
  1 22  1  0  0  0  0
  1 23  1  0  0  0  0
  1 24  1  0  0  0  0
  2  3  2  0  0  0  0
  2  4  1  0  0  0  0
  4  5  1  0  0  0  0
  4 25  1  0  0  0  0
  5  6  1  0  0  0  0
  5 26  1  0  0  0  0
  5 27  1  0  0  0  0
  6  7  1  0  0  0  0
  6 28  1  0  0  0  0
  6 29  1  0  0  0  0
  7  8  1  0  0  0  0
  8  9  1  0  0  0  0
  8 30  1  0  0  0  0
  8 31  1  0  0  0  0
  9 10  1  0  0  0  0
  9 32  1  0  0  0  0
  9 33  1  0  0  0  0
 10 11  1  0  0  0  0
 11 12  1  0  0  0  0
 11 34  1  0  0  0  0
 11 35  1  0  0  0  0
 12 13  1  0  0  0  0
 12 36  1  0  0  0  0
 12 37  1  0  0  0  0
 13 14  1  0  0  0  0
 14 15  1  0  0  0  0
 14 38  1  0  0  0  0
 14 39  1  0  0  0  0
 15 16  1  0  0  0  0
 15 40  1  0  0  0  0
 15 41  1  0  0  0  0
 16 17  1  0  0  0  0
 16 21  1  0  0  0  0
 17 18  2  0  0  0  0
 18 19  1  0  0  0  0
 19 20  1  0  0  0  0
 19 21  2  0  0  0  0
 20 42  1  0  0  0  0
 20 43  1  0  0  0  0
 20 44  1  0  0  0  0
 21 45  1  0  0  0  0
M  END
