2euf_17.pdb
  MOE2019           3D

 31 31  0  0  0  0  0  0  0  0999 V2000
   17.3130    1.9170    0.0000 C   0  0  0  0  0  0  0  0  0  0  0  0
   16.4480    3.1420    0.0000 C   0  0  0  0  0  0  0  0  0  0  0  0
   17.0770    4.5040    0.0000 O   0  0  0  0  0  0  0  0  0  0  0  0
   14.9540    3.0060    0.0000 N   0  0  0  0  0  0  0  0  0  0  0  0
   14.0890    4.2310    0.0000 C   0  0  0  0  0  0  0  0  0  0  0  0
   12.5950    4.0950    0.0000 C   0  0  0  0  0  0  0  0  0  0  0  0
   11.7300    5.3210    0.0000 O   0  0  0  0  0  0  0  0  0  0  0  0
   10.2360    5.1840    0.0000 C   0  0  0  0  0  0  0  0  0  0  0  0
    9.3710    6.4100    0.0000 C   0  0  0  0  0  0  0  0  0  0  0  0
    7.8780    6.2730    0.0000 N   0  0  0  0  0  0  0  0  0  0  0  0
    7.1100    4.9850    0.0000 N   0  0  0  0  0  0  0  0  0  0  0  0
    5.6470    5.3170    0.0000 N   0  0  0  0  0  0  0  0  0  0  0  0
    5.5110    6.8100    0.0000 C   0  0  0  0  0  0  0  0  0  0  0  0
    4.2220    7.5780    0.0000 C   0  0  0  0  0  0  0  0  0  0  0  0
    6.8890    7.4020    0.0000 C   0  0  0  0  0  0  0  0  0  0  0  0
   17.0490    1.3460    0.8900 H   0  0  0  0  0  0  0  0  0  0  0  0
   17.0490    1.3460   -0.8900 H   0  0  0  0  0  0  0  0  0  0  0  0
   18.3780    2.1490    0.0000 H   0  0  0  0  0  0  0  0  0  0  0  0
   14.5310    2.0890    0.0000 H   0  0  0  0  0  0  0  0  0  0  0  0
   14.3530    4.8020    0.8900 H   0  0  0  0  0  0  0  0  0  0  0  0
   14.3530    4.8020   -0.8900 H   0  0  0  0  0  0  0  0  0  0  0  0
   12.3310    3.5240    0.8900 H   0  0  0  0  0  0  0  0  0  0  0  0
   12.3310    3.5240   -0.8900 H   0  0  0  0  0  0  0  0  0  0  0  0
    9.9720    4.6130   -0.8900 H   0  0  0  0  0  0  0  0  0  0  0  0
    9.9720    4.6130    0.8900 H   0  0  0  0  0  0  0  0  0  0  0  0
    9.6350    6.9810   -0.8900 H   0  0  0  0  0  0  0  0  0  0  0  0
    9.6350    6.9810    0.8900 H   0  0  0  0  0  0  0  0  0  0  0  0
    4.2310    8.2070   -0.8900 H   0  0  0  0  0  0  0  0  0  0  0  0
    4.2310    8.2070    0.8900 H   0  0  0  0  0  0  0  0  0  0  0  0
    3.3430    6.9330    0.0000 H   0  0  0  0  0  0  0  0  0  0  0  0
    7.1280    8.4550    0.0000 H   0  0  0  0  0  0  0  0  0  0  0  0
  1  2  1  0  0  0  0
  1 16  1  0  0  0  0
  1 17  1  0  0  0  0
  1 18  1  0  0  0  0
  2  3  2  0  0  0  0
  2  4  1  0  0  0  0
  4  5  1  0  0  0  0
  4 19  1  0  0  0  0
  5  6  1  0  0  0  0
  5 20  1  0  0  0  0
  5 21  1  0  0  0  0
  6  7  1  0  0  0  0
  6 22  1  0  0  0  0
  6 23  1  0  0  0  0
  7  8  1  0  0  0  0
  8  9  1  0  0  0  0
  8 24  1  0  0  0  0
  8 25  1  0  0  0  0
  9 10  1  0  0  0  0
  9 26  1  0  0  0  0
  9 27  1  0  0  0  0
 10 11  1  0  0  0  0
 10 15  1  0  0  0  0
 11 12  2  0  0  0  0
 12 13  1  0  0  0  0
 13 14  1  0  0  0  0
 13 15  2  0  0  0  0
 14 28  1  0  0  0  0
 14 29  1  0  0  0  0
 14 30  1  0  0  0  0
 15 31  1  0  0  0  0
M  END
