2euf_15.pdb
  MOE2019           3D

 31 31  0  0  0  0  0  0  0  0999 V2000
  -11.2110   -8.4710    0.0000 C   0  0  0  0  0  0  0  0  0  0  0  0
   -9.7180   -8.3350    0.0000 C   0  0  0  0  0  0  0  0  0  0  0  0
   -8.8530   -9.5600    0.0000 O   0  0  0  0  0  0  0  0  0  0  0  0
   -7.3590   -9.4230    0.0000 C   0  0  0  0  0  0  0  0  0  0  0  0
   -6.4940  -10.6490    0.0000 C   0  0  0  0  0  0  0  0  0  0  0  0
   -5.0000  -10.5120    0.0000 O   0  0  0  0  0  0  0  0  0  0  0  0
   -4.3710   -9.1500    0.0000 C   0  0  0  0  0  0  0  0  0  0  0  0
   -2.8770   -9.0140    0.0000 C   0  0  0  0  0  0  0  0  0  0  0  0
   -2.2490   -7.6520    0.0000 N   0  0  0  0  0  0  0  0  0  0  0  0
   -2.9810   -6.3430    0.0000 N   0  0  0  0  0  0  0  0  0  0  0  0
   -1.9620   -5.2420    0.0000 N   0  0  0  0  0  0  0  0  0  0  0  0
   -0.6010   -5.8700    0.0000 C   0  0  0  0  0  0  0  0  0  0  0  0
    0.7090   -5.1380    0.0000 C   0  0  0  0  0  0  0  0  0  0  0  0
   -0.7770   -7.3600    0.0000 C   0  0  0  0  0  0  0  0  0  0  0  0
  -11.4750   -9.0420    0.8900 H   0  0  0  0  0  0  0  0  0  0  0  0
  -11.4750   -9.0420   -0.8900 H   0  0  0  0  0  0  0  0  0  0  0  0
  -11.7250   -7.5100    0.0000 H   0  0  0  0  0  0  0  0  0  0  0  0
   -9.4540   -7.7640    0.8900 H   0  0  0  0  0  0  0  0  0  0  0  0
   -9.4540   -7.7640   -0.8900 H   0  0  0  0  0  0  0  0  0  0  0  0
   -7.0950   -8.8520   -0.8900 H   0  0  0  0  0  0  0  0  0  0  0  0
   -7.0950   -8.8520    0.8900 H   0  0  0  0  0  0  0  0  0  0  0  0
   -6.7580  -11.2200   -0.8900 H   0  0  0  0  0  0  0  0  0  0  0  0
   -6.7580  -11.2200    0.8900 H   0  0  0  0  0  0  0  0  0  0  0  0
   -4.7340   -8.6360   -0.8900 H   0  0  0  0  0  0  0  0  0  0  0  0
   -4.7340   -8.6360    0.8900 H   0  0  0  0  0  0  0  0  0  0  0  0
   -2.5140   -9.5280   -0.8900 H   0  0  0  0  0  0  0  0  0  0  0  0
   -2.5140   -9.5280    0.8900 H   0  0  0  0  0  0  0  0  0  0  0  0
    0.7180   -4.5090    0.8900 H   0  0  0  0  0  0  0  0  0  0  0  0
    0.7180   -4.5090   -0.8900 H   0  0  0  0  0  0  0  0  0  0  0  0
    1.5690   -5.8070    0.0000 H   0  0  0  0  0  0  0  0  0  0  0  0
    0.0160   -8.0930    0.0000 H   0  0  0  0  0  0  0  0  0  0  0  0
  1  2  1  0  0  0  0
  1 15  1  0  0  0  0
  1 16  1  0  0  0  0
  1 17  1  0  0  0  0
  2  3  1  0  0  0  0
  2 18  1  0  0  0  0
  2 19  1  0  0  0  0
  3  4  1  0  0  0  0
  4  5  1  0  0  0  0
  4 20  1  0  0  0  0
  4 21  1  0  0  0  0
  5  6  1  0  0  0  0
  5 22  1  0  0  0  0
  5 23  1  0  0  0  0
  6  7  1  0  0  0  0
  7  8  1  0  0  0  0
  7 24  1  0  0  0  0
  7 25  1  0  0  0  0
  8  9  1  0  0  0  0
  8 26  1  0  0  0  0
  8 27  1  0  0  0  0
  9 10  1  0  0  0  0
  9 14  1  0  0  0  0
 10 11  2  0  0  0  0
 11 12  1  0  0  0  0
 12 13  1  0  0  0  0
 12 14  2  0  0  0  0
 13 28  1  0  0  0  0
 13 29  1  0  0  0  0
 13 30  1  0  0  0  0
 14 31  1  0  0  0  0
M  END
