2gqg_29.pdb
  MOE2019           3D

 38 39  0  0  0  0  0  0  0  0999 V2000
  -10.4360    6.2280    0.0000 C   0  0  0  0  0  0  0  0  0  0  0  0
  -11.1660    7.5380    0.0000 C   0  0  0  0  0  0  0  0  0  0  0  0
  -12.6650    7.5610    0.0000 C   0  0  0  0  0  0  0  0  0  0  0  0
  -13.3950    8.8720    0.0000 O   0  0  0  0  0  0  0  0  0  0  0  0
  -14.8950    8.8950    0.0000 C   0  0  0  0  0  0  0  0  0  0  0  0
  -15.6650    7.6080    0.0000 C   0  0  0  0  0  0  0  0  0  0  0  0
  -17.1650    7.6310    0.0000 C   0  0  0  0  0  0  0  0  0  0  0  0
  -17.8950    8.9410    0.0000 C   0  0  0  0  0  0  0  0  0  0  0  0
  -19.3950    8.9640    0.0000 N   0  0  0  0  0  0  0  0  0  0  0  0
  -20.1240   10.2750    0.0000 N   0  0  0  0  0  0  0  0  0  0  0  0
  -21.6240   10.2980    0.0000 C   0  0  0  0  0  0  0  0  0  0  0  0
  -22.3940    9.0110    0.0000 C   0  0  0  0  0  0  0  0  0  0  0  0
  -23.8940    9.0340    0.0000 C   0  0  0  0  0  0  0  0  0  0  0  0
  -24.6240   10.3440    0.0000 C   0  0  0  0  0  0  0  0  0  0  0  0
  -26.1240   10.3670    0.0000 C   0  0  0  0  0  0  0  0  0  0  0  0
  -26.8940    9.0800    0.0000 O   0  0  0  0  0  0  0  0  0  0  0  0
  -26.8540   11.6780    0.0000 N   0  0  0  0  0  0  0  0  0  0  0  0
  -23.8540   11.6320    0.0000 C   0  0  0  0  0  0  0  0  0  0  0  0
  -22.3540   11.6090    0.0000 C   0  0  0  0  0  0  0  0  0  0  0  0
  -17.1250   10.2290    0.0000 C   0  0  0  0  0  0  0  0  0  0  0  0
  -15.6250   10.2060    0.0000 C   0  0  0  0  0  0  0  0  0  0  0  0
  -10.7590    5.6880    0.8900 H   0  0  0  0  0  0  0  0  0  0  0  0
  -10.7590    5.6880   -0.8900 H   0  0  0  0  0  0  0  0  0  0  0  0
   -9.3520    6.3460    0.0000 H   0  0  0  0  0  0  0  0  0  0  0  0
  -10.8430    8.0780   -0.8900 H   0  0  0  0  0  0  0  0  0  0  0  0
  -10.8430    8.0780    0.8900 H   0  0  0  0  0  0  0  0  0  0  0  0
  -12.9880    7.0210    0.8900 H   0  0  0  0  0  0  0  0  0  0  0  0
  -12.9880    7.0210   -0.8900 H   0  0  0  0  0  0  0  0  0  0  0  0
  -15.1400    6.6640    0.0000 H   0  0  0  0  0  0  0  0  0  0  0  0
  -17.7190    6.7040    0.0000 H   0  0  0  0  0  0  0  0  0  0  0  0
  -21.8690    8.0670    0.0000 H   0  0  0  0  0  0  0  0  0  0  0  0
  -24.4480    8.1070    0.0000 H   0  0  0  0  0  0  0  0  0  0  0  0
  -26.3360   12.5450    0.0000 H   0  0  0  0  0  0  0  0  0  0  0  0
  -27.8640   11.6930    0.0000 H   0  0  0  0  0  0  0  0  0  0  0  0
  -24.3800   12.5750    0.0000 H   0  0  0  0  0  0  0  0  0  0  0  0
  -21.8000   12.5360    0.0000 H   0  0  0  0  0  0  0  0  0  0  0  0
  -17.6510   11.1720    0.0000 H   0  0  0  0  0  0  0  0  0  0  0  0
  -15.0710   11.1330    0.0000 H   0  0  0  0  0  0  0  0  0  0  0  0
  1  2  1  0  0  0  0
  1 22  1  0  0  0  0
  1 23  1  0  0  0  0
  1 24  1  0  0  0  0
  2  3  1  0  0  0  0
  2 25  1  0  0  0  0
  2 26  1  0  0  0  0
  3  4  1  0  0  0  0
  3 27  1  0  0  0  0
  3 28  1  0  0  0  0
  4  5  1  0  0  0  0
  5  6  1  0  0  0  0
  5 21  2  0  0  0  0
  6  7  2  0  0  0  0
  6 29  1  0  0  0  0
  7  8  1  0  0  0  0
  7 30  1  0  0  0  0
  8  9  1  0  0  0  0
  8 20  2  0  0  0  0
  9 10  2  0  0  0  0
 10 11  1  0  0  0  0
 11 12  1  0  0  0  0
 11 19  2  0  0  0  0
 12 13  2  0  0  0  0
 12 31  1  0  0  0  0
 13 14  1  0  0  0  0
 13 32  1  0  0  0  0
 14 15  1  0  0  0  0
 14 18  2  0  0  0  0
 15 16  2  0  0  0  0
 15 17  1  0  0  0  0
 17 33  1  0  0  0  0
 17 34  1  0  0  0  0
 18 19  1  0  0  0  0
 18 35  1  0  0  0  0
 19 36  1  0  0  0  0
 20 21  1  0  0  0  0
 20 37  1  0  0  0  0
 21 38  1  0  0  0  0
M  END
