2gqg_9.pdb
  MOE2019           3D

 32 31  0  0  0  0  0  0  0  0999 V2000
    0.9670  -25.1170    0.0000 C   0  0  0  0  0  0  0  0  0  0  0  0
   -0.3450  -24.3920    0.0000 C   0  0  0  0  0  0  0  0  0  0  0  0
   -1.6300  -25.1660    0.0000 C   0  0  0  0  0  0  0  0  0  0  0  0
   -2.9430  -24.4400    0.0000 C   0  0  0  0  0  0  0  0  0  0  0  0
   -4.2280  -25.2140    0.0000 C   0  0  0  0  0  0  0  0  0  0  0  0
   -5.5410  -24.4890    0.0000 C   0  0  0  0  0  0  0  0  0  0  0  0
   -6.8260  -25.2630    0.0000 C   0  0  0  0  0  0  0  0  0  0  0  0
   -8.1380  -24.5370    0.0000 C   0  0  0  0  0  0  0  0  0  0  0  0
   -9.4230  -25.3110    0.0000 C   0  0  0  0  0  0  0  0  0  0  0  0
  -10.7360  -24.5850    0.0000 C   0  0  0  0  0  0  0  0  0  0  0  0
    0.9790  -25.7460   -0.8900 H   0  0  0  0  0  0  0  0  0  0  0  0
    1.8240  -24.4430    0.0000 H   0  0  0  0  0  0  0  0  0  0  0  0
    0.9790  -25.7460    0.8900 H   0  0  0  0  0  0  0  0  0  0  0  0
   -0.3570  -23.7630    0.8900 H   0  0  0  0  0  0  0  0  0  0  0  0
   -0.3570  -23.7630   -0.8900 H   0  0  0  0  0  0  0  0  0  0  0  0
   -1.6180  -25.7950   -0.8900 H   0  0  0  0  0  0  0  0  0  0  0  0
   -1.6180  -25.7950    0.8900 H   0  0  0  0  0  0  0  0  0  0  0  0
   -2.9550  -23.8110    0.8900 H   0  0  0  0  0  0  0  0  0  0  0  0
   -2.9550  -23.8110   -0.8900 H   0  0  0  0  0  0  0  0  0  0  0  0
   -4.2160  -25.8430   -0.8900 H   0  0  0  0  0  0  0  0  0  0  0  0
   -4.2160  -25.8430    0.8900 H   0  0  0  0  0  0  0  0  0  0  0  0
   -5.5530  -23.8600   -0.8900 H   0  0  0  0  0  0  0  0  0  0  0  0
   -5.5530  -23.8600    0.8900 H   0  0  0  0  0  0  0  0  0  0  0  0
   -6.8140  -25.8920    0.8900 H   0  0  0  0  0  0  0  0  0  0  0  0
   -6.8140  -25.8920   -0.8900 H   0  0  0  0  0  0  0  0  0  0  0  0
   -8.1500  -23.9080   -0.8900 H   0  0  0  0  0  0  0  0  0  0  0  0
   -8.1500  -23.9080    0.8900 H   0  0  0  0  0  0  0  0  0  0  0  0
   -9.4110  -25.9400    0.8900 H   0  0  0  0  0  0  0  0  0  0  0  0
   -9.4110  -25.9400   -0.8900 H   0  0  0  0  0  0  0  0  0  0  0  0
  -10.7480  -23.9560   -0.8900 H   0  0  0  0  0  0  0  0  0  0  0  0
  -10.7480  -23.9560    0.8900 H   0  0  0  0  0  0  0  0  0  0  0  0
  -11.5930  -25.2580    0.0000 H   0  0  0  0  0  0  0  0  0  0  0  0
  1  2  1  0  0  0  0
  1 11  1  0  0  0  0
  1 12  1  0  0  0  0
  1 13  1  0  0  0  0
  2  3  1  0  0  0  0
  2 14  1  0  0  0  0
  2 15  1  0  0  0  0
  3  4  1  0  0  0  0
  3 16  1  0  0  0  0
  3 17  1  0  0  0  0
  4  5  1  0  0  0  0
  4 18  1  0  0  0  0
  4 19  1  0  0  0  0
  5  6  1  0  0  0  0
  5 20  1  0  0  0  0
  5 21  1  0  0  0  0
  6  7  1  0  0  0  0
  6 22  1  0  0  0  0
  6 23  1  0  0  0  0
  7  8  1  0  0  0  0
  7 24  1  0  0  0  0
  7 25  1  0  0  0  0
  8  9  1  0  0  0  0
  8 26  1  0  0  0  0
  8 27  1  0  0  0  0
  9 10  1  0  0  0  0
  9 28  1  0  0  0  0
  9 29  1  0  0  0  0
 10 30  1  0  0  0  0
 10 31  1  0  0  0  0
 10 32  1  0  0  0  0
M  END
