2gqg_27.pdb
  MOE2019           3D

 56 55  0  0  0  0  0  0  0  0999 V2000
  -12.8650   21.1860    0.0000 C   0  0  0  0  0  0  0  0  0  0  0  0
  -11.5540   21.9150    0.0000 C   0  0  0  0  0  0  0  0  0  0  0  0
  -10.2670   21.1450    0.0000 C   0  0  0  0  0  0  0  0  0  0  0  0
   -8.9560   21.8740    0.0000 C   0  0  0  0  0  0  0  0  0  0  0  0
   -7.6690   21.1030    0.0000 C   0  0  0  0  0  0  0  0  0  0  0  0
   -6.3580   21.8320    0.0000 C   0  0  0  0  0  0  0  0  0  0  0  0
   -5.0720   21.0620    0.0000 O   0  0  0  0  0  0  0  0  0  0  0  0
   -3.7610   21.7910    0.0000 C   0  0  0  0  0  0  0  0  0  0  0  0
   -2.4740   21.0200    0.0000 C   0  0  0  0  0  0  0  0  0  0  0  0
   -1.1630   21.7490    0.0000 C   0  0  0  0  0  0  0  0  0  0  0  0
    0.1240   20.9790    0.0000 C   0  0  0  0  0  0  0  0  0  0  0  0
    1.4350   21.7080    0.0000 C   0  0  0  0  0  0  0  0  0  0  0  0
    2.7220   20.9370    0.0000 O   0  0  0  0  0  0  0  0  0  0  0  0
    4.0330   21.6670    0.0000 C   0  0  0  0  0  0  0  0  0  0  0  0
    5.3190   20.8960    0.0000 C   0  0  0  0  0  0  0  0  0  0  0  0
    6.6300   21.6250    0.0000 C   0  0  0  0  0  0  0  0  0  0  0  0
    7.9170   20.8550    0.0000 C   0  0  0  0  0  0  0  0  0  0  0  0
    7.9070   20.2260   -0.8900 H   0  0  0  0  0  0  0  0  0  0  0  0
    7.9070   20.2260    0.8900 H   0  0  0  0  0  0  0  0  0  0  0  0
  -12.8750   20.5570   -0.8900 H   0  0  0  0  0  0  0  0  0  0  0  0
  -12.8750   20.5570    0.8900 H   0  0  0  0  0  0  0  0  0  0  0  0
  -13.7240   21.8570    0.0000 H   0  0  0  0  0  0  0  0  0  0  0  0
  -11.5440   22.5440    0.8900 H   0  0  0  0  0  0  0  0  0  0  0  0
  -11.5440   22.5440   -0.8900 H   0  0  0  0  0  0  0  0  0  0  0  0
  -10.2770   20.5160   -0.8900 H   0  0  0  0  0  0  0  0  0  0  0  0
  -10.2770   20.5160    0.8900 H   0  0  0  0  0  0  0  0  0  0  0  0
   -8.9460   22.5030    0.8900 H   0  0  0  0  0  0  0  0  0  0  0  0
   -8.9460   22.5030   -0.8900 H   0  0  0  0  0  0  0  0  0  0  0  0
   -7.6790   20.4740   -0.8900 H   0  0  0  0  0  0  0  0  0  0  0  0
   -7.6790   20.4740    0.8900 H   0  0  0  0  0  0  0  0  0  0  0  0
   -6.3480   22.4610    0.8900 H   0  0  0  0  0  0  0  0  0  0  0  0
   -6.3480   22.4610   -0.8900 H   0  0  0  0  0  0  0  0  0  0  0  0
   -3.7510   22.4200    0.8900 H   0  0  0  0  0  0  0  0  0  0  0  0
   -3.7510   22.4200   -0.8900 H   0  0  0  0  0  0  0  0  0  0  0  0
   -2.4840   20.3910   -0.8900 H   0  0  0  0  0  0  0  0  0  0  0  0
   -2.4840   20.3910    0.8900 H   0  0  0  0  0  0  0  0  0  0  0  0
   -1.1530   22.3780    0.8900 H   0  0  0  0  0  0  0  0  0  0  0  0
   -1.1530   22.3780   -0.8900 H   0  0  0  0  0  0  0  0  0  0  0  0
    0.1140   20.3500   -0.8900 H   0  0  0  0  0  0  0  0  0  0  0  0
    0.1140   20.3500    0.8900 H   0  0  0  0  0  0  0  0  0  0  0  0
    1.4450   22.3370    0.8900 H   0  0  0  0  0  0  0  0  0  0  0  0
    1.4450   22.3370   -0.8900 H   0  0  0  0  0  0  0  0  0  0  0  0
    4.0430   22.2960    0.8900 H   0  0  0  0  0  0  0  0  0  0  0  0
    4.0430   22.2960   -0.8900 H   0  0  0  0  0  0  0  0  0  0  0  0
    5.3090   20.2670   -0.8900 H   0  0  0  0  0  0  0  0  0  0  0  0
    5.3090   20.2670    0.8900 H   0  0  0  0  0  0  0  0  0  0  0  0
    6.6400   22.2540    0.8900 H   0  0  0  0  0  0  0  0  0  0  0  0
    6.6400   22.2540   -0.8900 H   0  0  0  0  0  0  0  0  0  0  0  0
    9.2280   21.5840    0.0000 C   0  0  0  0  0  0  0  0  0  0  0  0
    9.2380   22.2130   -0.8900 H   0  0  0  0  0  0  0  0  0  0  0  0
    9.2380   22.2130    0.8900 H   0  0  0  0  0  0  0  0  0  0  0  0
   10.5150   20.8130    0.0000 C   0  0  0  0  0  0  0  0  0  0  0  0
   10.4910   19.3130    0.0000 O   0  0  0  0  0  0  0  0  0  0  0  0
   11.8260   21.5420    0.0000 N   0  0  0  0  0  0  0  0  0  0  0  0
   12.6920   21.0230    0.0000 H   0  0  0  0  0  0  0  0  0  0  0  0
   11.8420   22.5520    0.0000 H   0  0  0  0  0  0  0  0  0  0  0  0
  1  2  1  0  0  0  0
  1 20  1  0  0  0  0
  1 21  1  0  0  0  0
  1 22  1  0  0  0  0
  2  3  1  0  0  0  0
  2 23  1  0  0  0  0
  2 24  1  0  0  0  0
  3  4  1  0  0  0  0
  3 25  1  0  0  0  0
  3 26  1  0  0  0  0
  4  5  1  0  0  0  0
  4 27  1  0  0  0  0
  4 28  1  0  0  0  0
  5  6  1  0  0  0  0
  5 29  1  0  0  0  0
  5 30  1  0  0  0  0
  6  7  1  0  0  0  0
  6 31  1  0  0  0  0
  6 32  1  0  0  0  0
  7  8  1  0  0  0  0
  8  9  1  0  0  0  0
  8 33  1  0  0  0  0
  8 34  1  0  0  0  0
  9 10  1  0  0  0  0
  9 35  1  0  0  0  0
  9 36  1  0  0  0  0
 10 11  1  0  0  0  0
 10 37  1  0  0  0  0
 10 38  1  0  0  0  0
 11 12  1  0  0  0  0
 11 39  1  0  0  0  0
 11 40  1  0  0  0  0
 12 13  1  0  0  0  0
 12 41  1  0  0  0  0
 12 42  1  0  0  0  0
 13 14  1  0  0  0  0
 14 15  1  0  0  0  0
 14 43  1  0  0  0  0
 14 44  1  0  0  0  0
 15 16  1  0  0  0  0
 15 45  1  0  0  0  0
 15 46  1  0  0  0  0
 16 17  1  0  0  0  0
 16 47  1  0  0  0  0
 16 48  1  0  0  0  0
 17 18  1  0  0  0  0
 17 19  1  0  0  0  0
 17 49  1  0  0  0  0
 49 50  1  0  0  0  0
 49 51  1  0  0  0  0
 49 52  1  0  0  0  0
 52 53  2  0  0  0  0
 52 54  1  0  0  0  0
 54 55  1  0  0  0  0
 54 56  1  0  0  0  0
M  END
