2gqg_6.pdb
  MOE2019           3D

 16 15  0  0  0  0  0  0  0  0999 V2000
  -15.0870  -16.6370    0.0000 C   0  0  0  0  0  0  0  0  0  0  0  0
  -14.3020  -17.9150    0.0000 O   0  0  0  0  0  0  0  0  0  0  0  0
  -12.8030  -17.8740    0.0000 C   0  0  0  0  0  0  0  0  0  0  0  0
  -12.0880  -16.5550    0.0000 C   0  0  0  0  0  0  0  0  0  0  0  0
  -10.5890  -16.5150    0.0000 O   0  0  0  0  0  0  0  0  0  0  0  0
   -9.8750  -15.1960    0.0000 C   0  0  0  0  0  0  0  0  0  0  0  0
  -14.7870  -16.0840    0.8900 H   0  0  0  0  0  0  0  0  0  0  0  0
  -16.1650  -16.8000    0.0000 H   0  0  0  0  0  0  0  0  0  0  0  0
  -14.7870  -16.0840   -0.8900 H   0  0  0  0  0  0  0  0  0  0  0  0
  -12.4740  -18.4100    0.8900 H   0  0  0  0  0  0  0  0  0  0  0  0
  -12.4740  -18.4100   -0.8900 H   0  0  0  0  0  0  0  0  0  0  0  0
  -12.4170  -16.0190    0.8900 H   0  0  0  0  0  0  0  0  0  0  0  0
  -12.4170  -16.0190   -0.8900 H   0  0  0  0  0  0  0  0  0  0  0  0
  -10.2040  -14.6600   -0.8900 H   0  0  0  0  0  0  0  0  0  0  0  0
  -10.2040  -14.6600    0.8900 H   0  0  0  0  0  0  0  0  0  0  0  0
   -8.7900  -15.3010    0.0000 H   0  0  0  0  0  0  0  0  0  0  0  0
  1  2  1  0  0  0  0
  1  7  1  0  0  0  0
  1  8  1  0  0  0  0
  1  9  1  0  0  0  0
  2  3  1  0  0  0  0
  3  4  1  0  0  0  0
  3 10  1  0  0  0  0
  3 11  1  0  0  0  0
  4  5  1  0  0  0  0
  4 12  1  0  0  0  0
  4 13  1  0  0  0  0
  5  6  1  0  0  0  0
  6 14  1  0  0  0  0
  6 15  1  0  0  0  0
  6 16  1  0  0  0  0
M  END
