2gqg_17.pdb
  MOE2019           3D

 20 20  0  0  0  0  0  0  0  0999 V2000
  -13.1130  -15.3270    0.0000 C   0  0  0  0  0  0  0  0  0  0  0  0
  -13.8870  -16.6120    0.0000 C   0  0  0  0  0  0  0  0  0  0  0  0
  -15.3870  -16.5830    0.0000 C   0  0  0  0  0  0  0  0  0  0  0  0
  -16.2920  -17.7800    0.0000 N   0  0  0  0  0  0  0  0  0  0  0  0
  -17.7090  -17.2890    0.0000 N   0  0  0  0  0  0  0  0  0  0  0  0
  -17.6810  -15.7900    0.0000 N   0  0  0  0  0  0  0  0  0  0  0  0
  -18.8770  -14.8850    0.0000 C   0  0  0  0  0  0  0  0  0  0  0  0
  -20.2590  -15.4690    0.0000 C   0  0  0  0  0  0  0  0  0  0  0  0
  -16.2460  -15.3530    0.0000 C   0  0  0  0  0  0  0  0  0  0  0  0
  -13.4170  -14.7760    0.8900 H   0  0  0  0  0  0  0  0  0  0  0  0
  -12.0340  -15.4820    0.0000 H   0  0  0  0  0  0  0  0  0  0  0  0
  -13.4170  -14.7760   -0.8900 H   0  0  0  0  0  0  0  0  0  0  0  0
  -13.5830  -17.1630    0.8900 H   0  0  0  0  0  0  0  0  0  0  0  0
  -13.5830  -17.1630   -0.8900 H   0  0  0  0  0  0  0  0  0  0  0  0
  -18.7990  -14.2610    0.8900 H   0  0  0  0  0  0  0  0  0  0  0  0
  -18.7990  -14.2610   -0.8900 H   0  0  0  0  0  0  0  0  0  0  0  0
  -20.7610  -15.0890    0.8900 H   0  0  0  0  0  0  0  0  0  0  0  0
  -20.7610  -15.0890   -0.8900 H   0  0  0  0  0  0  0  0  0  0  0  0
  -20.2590  -16.5590    0.0000 H   0  0  0  0  0  0  0  0  0  0  0  0
  -15.8930  -14.3320    0.0000 H   0  0  0  0  0  0  0  0  0  0  0  0
  1  2  1  0  0  0  0
  1 10  1  0  0  0  0
  1 11  1  0  0  0  0
  1 12  1  0  0  0  0
  2  3  1  0  0  0  0
  2 13  1  0  0  0  0
  2 14  1  0  0  0  0
  3  4  1  0  0  0  0
  3  9  2  0  0  0  0
  4  5  2  0  0  0  0
  5  6  1  0  0  0  0
  6  7  1  0  0  0  0
  6  9  1  0  0  0  0
  7  8  1  0  0  0  0
  7 15  1  0  0  0  0
  7 16  1  0  0  0  0
  8 17  1  0  0  0  0
  8 18  1  0  0  0  0
  8 19  1  0  0  0  0
  9 20  1  0  0  0  0
M  END
