2gqg_15.pdb
  MOE2019           3D

  5  4  0  0  0  0  0  0  0  0999 V2000
   -8.1790   19.7420    0.0000 C   0  0  0  0  0  0  0  0  0  0  0  0
   -8.1650   20.3710    0.8900 H   0  0  0  0  0  0  0  0  0  0  0  0
   -8.1650   20.3710   -0.8900 H   0  0  0  0  0  0  0  0  0  0  0  0
   -7.2960   19.1020    0.0000 H   0  0  0  0  0  0  0  0  0  0  0  0
   -9.0630   19.1040    0.0000 H   0  0  0  0  0  0  0  0  0  0  0  0
  1  2  1  0  0  0  0
  1  3  1  0  0  0  0
  1  4  1  0  0  0  0
  1  5  1  0  0  0  0
M  END
