2gqg_23.pdb
  MOE2019           3D

 49 48  0  0  0  0  0  0  0  0999 V2000
    4.0570  -29.5170    0.0000 C   0  0  0  0  0  0  0  0  0  0  0  0
    2.7450  -28.7890    0.0000 C   0  0  0  0  0  0  0  0  0  0  0  0
    1.4590  -29.5620    0.0000 C   0  0  0  0  0  0  0  0  0  0  0  0
    0.1480  -28.8340    0.0000 C   0  0  0  0  0  0  0  0  0  0  0  0
   -1.1380  -29.6070    0.0000 C   0  0  0  0  0  0  0  0  0  0  0  0
   -2.4500  -28.8790    0.0000 C   0  0  0  0  0  0  0  0  0  0  0  0
   -3.7360  -29.6510    0.0000 O   0  0  0  0  0  0  0  0  0  0  0  0
   -5.0480  -28.9240    0.0000 C   0  0  0  0  0  0  0  0  0  0  0  0
   -6.3340  -29.6960    0.0000 C   0  0  0  0  0  0  0  0  0  0  0  0
   -7.6460  -28.9690    0.0000 C   0  0  0  0  0  0  0  0  0  0  0  0
   -8.9310  -29.7410    0.0000 C   0  0  0  0  0  0  0  0  0  0  0  0
  -10.2430  -29.0140    0.0000 C   0  0  0  0  0  0  0  0  0  0  0  0
  -11.5290  -29.7860    0.0000 O   0  0  0  0  0  0  0  0  0  0  0  0
  -12.8410  -29.0590    0.0000 C   0  0  0  0  0  0  0  0  0  0  0  0
  -14.1270  -29.8310    0.0000 C   0  0  0  0  0  0  0  0  0  0  0  0
  -15.4390  -29.1040    0.0000 C   0  0  0  0  0  0  0  0  0  0  0  0
  -16.7240  -29.8760    0.0000 C   0  0  0  0  0  0  0  0  0  0  0  0
    4.0680  -30.1460   -0.8900 H   0  0  0  0  0  0  0  0  0  0  0  0
    4.0680  -30.1460    0.8900 H   0  0  0  0  0  0  0  0  0  0  0  0
    4.9150  -28.8450    0.0000 H   0  0  0  0  0  0  0  0  0  0  0  0
    2.7340  -28.1600    0.8900 H   0  0  0  0  0  0  0  0  0  0  0  0
    2.7340  -28.1600   -0.8900 H   0  0  0  0  0  0  0  0  0  0  0  0
    1.4700  -30.1910   -0.8900 H   0  0  0  0  0  0  0  0  0  0  0  0
    1.4700  -30.1910    0.8900 H   0  0  0  0  0  0  0  0  0  0  0  0
    0.1370  -28.2050   -0.8900 H   0  0  0  0  0  0  0  0  0  0  0  0
    0.1370  -28.2050    0.8900 H   0  0  0  0  0  0  0  0  0  0  0  0
   -1.1270  -30.2360    0.8900 H   0  0  0  0  0  0  0  0  0  0  0  0
   -1.1270  -30.2360   -0.8900 H   0  0  0  0  0  0  0  0  0  0  0  0
   -2.4610  -28.2500   -0.8900 H   0  0  0  0  0  0  0  0  0  0  0  0
   -2.4610  -28.2500    0.8900 H   0  0  0  0  0  0  0  0  0  0  0  0
   -5.0590  -28.2950    0.8900 H   0  0  0  0  0  0  0  0  0  0  0  0
   -5.0590  -28.2950   -0.8900 H   0  0  0  0  0  0  0  0  0  0  0  0
   -6.3230  -30.3250   -0.8900 H   0  0  0  0  0  0  0  0  0  0  0  0
   -6.3230  -30.3250    0.8900 H   0  0  0  0  0  0  0  0  0  0  0  0
   -7.6570  -28.3400   -0.8900 H   0  0  0  0  0  0  0  0  0  0  0  0
   -7.6570  -28.3400    0.8900 H   0  0  0  0  0  0  0  0  0  0  0  0
   -8.9200  -30.3700    0.8900 H   0  0  0  0  0  0  0  0  0  0  0  0
   -8.9200  -30.3700   -0.8900 H   0  0  0  0  0  0  0  0  0  0  0  0
  -10.2540  -28.3850   -0.8900 H   0  0  0  0  0  0  0  0  0  0  0  0
  -10.2540  -28.3850    0.8900 H   0  0  0  0  0  0  0  0  0  0  0  0
  -12.8520  -28.4300    0.8900 H   0  0  0  0  0  0  0  0  0  0  0  0
  -12.8520  -28.4300   -0.8900 H   0  0  0  0  0  0  0  0  0  0  0  0
  -14.1160  -30.4600   -0.8900 H   0  0  0  0  0  0  0  0  0  0  0  0
  -14.1160  -30.4600    0.8900 H   0  0  0  0  0  0  0  0  0  0  0  0
  -15.4500  -28.4750    0.8900 H   0  0  0  0  0  0  0  0  0  0  0  0
  -15.4500  -28.4750   -0.8900 H   0  0  0  0  0  0  0  0  0  0  0  0
  -16.7130  -30.5050    0.8900 H   0  0  0  0  0  0  0  0  0  0  0  0
  -16.7130  -30.5050   -0.8900 H   0  0  0  0  0  0  0  0  0  0  0  0
  -17.6050  -29.2340    0.0000 H   0  0  0  0  0  0  0  0  0  0  0  0
  1  2  1  0  0  0  0
  1 18  1  0  0  0  0
  1 19  1  0  0  0  0
  1 20  1  0  0  0  0
  2  3  1  0  0  0  0
  2 21  1  0  0  0  0
  2 22  1  0  0  0  0
  3  4  1  0  0  0  0
  3 23  1  0  0  0  0
  3 24  1  0  0  0  0
  4  5  1  0  0  0  0
  4 25  1  0  0  0  0
  4 26  1  0  0  0  0
  5  6  1  0  0  0  0
  5 27  1  0  0  0  0
  5 28  1  0  0  0  0
  6  7  1  0  0  0  0
  6 29  1  0  0  0  0
  6 30  1  0  0  0  0
  7  8  1  0  0  0  0
  8  9  1  0  0  0  0
  8 31  1  0  0  0  0
  8 32  1  0  0  0  0
  9 10  1  0  0  0  0
  9 33  1  0  0  0  0
  9 34  1  0  0  0  0
 10 11  1  0  0  0  0
 10 35  1  0  0  0  0
 10 36  1  0  0  0  0
 11 12  1  0  0  0  0
 11 37  1  0  0  0  0
 11 38  1  0  0  0  0
 12 13  1  0  0  0  0
 12 39  1  0  0  0  0
 12 40  1  0  0  0  0
 13 14  1  0  0  0  0
 14 15  1  0  0  0  0
 14 41  1  0  0  0  0
 14 42  1  0  0  0  0
 15 16  1  0  0  0  0
 15 43  1  0  0  0  0
 15 44  1  0  0  0  0
 16 17  1  0  0  0  0
 16 45  1  0  0  0  0
 16 46  1  0  0  0  0
 17 47  1  0  0  0  0
 17 48  1  0  0  0  0
 17 49  1  0  0  0  0
M  END
