2hyy_7.pdb
  MOE2019           3D

 63 62  0  0  0  0  0  0  0  0999 V2000
   26.5040   17.0340    0.0000 O   0  0  0  0  0  0  0  0  0  0  0  0
   25.0040   17.0340    0.0000 C   0  0  0  0  0  0  0  0  0  0  0  0
   24.2540   18.3330    0.0000 C   0  0  0  0  0  0  0  0  0  0  0  0
   22.7540   18.3330    0.0000 O   0  0  0  0  0  0  0  0  0  0  0  0
   22.0040   19.6320    0.0000 C   0  0  0  0  0  0  0  0  0  0  0  0
   20.5040   19.6320    0.0000 C   0  0  0  0  0  0  0  0  0  0  0  0
   19.7540   20.9310    0.0000 O   0  0  0  0  0  0  0  0  0  0  0  0
   18.2540   20.9310    0.0000 C   0  0  0  0  0  0  0  0  0  0  0  0
   17.5040   22.2300    0.0000 C   0  0  0  0  0  0  0  0  0  0  0  0
   16.0040   22.2300    0.0000 O   0  0  0  0  0  0  0  0  0  0  0  0
   15.2540   23.5290    0.0000 C   0  0  0  0  0  0  0  0  0  0  0  0
   13.7540   23.5290    0.0000 C   0  0  0  0  0  0  0  0  0  0  0  0
   13.0040   24.8280    0.0000 O   0  0  0  0  0  0  0  0  0  0  0  0
   11.5040   24.8280    0.0000 C   0  0  0  0  0  0  0  0  0  0  0  0
   10.7540   23.5290    0.0000 C   0  0  0  0  0  0  0  0  0  0  0  0
    9.2540   23.5290    0.0000 O   0  0  0  0  0  0  0  0  0  0  0  0
    8.5040   22.2300    0.0000 C   0  0  0  0  0  0  0  0  0  0  0  0
    7.0040   22.2300    0.0000 C   0  0  0  0  0  0  0  0  0  0  0  0
    6.2540   20.9310    0.0000 C   0  0  0  0  0  0  0  0  0  0  0  0
    4.7540   20.9310    0.0000 C   0  0  0  0  0  0  0  0  0  0  0  0
    4.0040   19.6320    0.0000 C   0  0  0  0  0  0  0  0  0  0  0  0
    2.5040   19.6320    0.0000 C   0  0  0  0  0  0  0  0  0  0  0  0
   24.6890   16.4890    0.8900 H   0  0  0  0  0  0  0  0  0  0  0  0
   24.6890   16.4890   -0.8900 H   0  0  0  0  0  0  0  0  0  0  0  0
   24.5690   18.8780   -0.8900 H   0  0  0  0  0  0  0  0  0  0  0  0
   24.5690   18.8780    0.8900 H   0  0  0  0  0  0  0  0  0  0  0  0
   22.3190   20.1770   -0.8900 H   0  0  0  0  0  0  0  0  0  0  0  0
   22.3190   20.1770    0.8900 H   0  0  0  0  0  0  0  0  0  0  0  0
   20.1890   19.0870    0.8900 H   0  0  0  0  0  0  0  0  0  0  0  0
   20.1890   19.0870   -0.8900 H   0  0  0  0  0  0  0  0  0  0  0  0
   17.9390   20.3860    0.8900 H   0  0  0  0  0  0  0  0  0  0  0  0
   17.9390   20.3860   -0.8900 H   0  0  0  0  0  0  0  0  0  0  0  0
   17.8190   22.7750   -0.8900 H   0  0  0  0  0  0  0  0  0  0  0  0
   17.8190   22.7750    0.8900 H   0  0  0  0  0  0  0  0  0  0  0  0
   15.5690   24.0740   -0.8900 H   0  0  0  0  0  0  0  0  0  0  0  0
   15.5690   24.0740    0.8900 H   0  0  0  0  0  0  0  0  0  0  0  0
   13.4390   22.9840    0.8900 H   0  0  0  0  0  0  0  0  0  0  0  0
   13.4390   22.9840   -0.8900 H   0  0  0  0  0  0  0  0  0  0  0  0
   11.1890   25.3730   -0.8900 H   0  0  0  0  0  0  0  0  0  0  0  0
   11.1890   25.3730    0.8900 H   0  0  0  0  0  0  0  0  0  0  0  0
   11.0690   22.9840    0.8900 H   0  0  0  0  0  0  0  0  0  0  0  0
   11.0690   22.9840   -0.8900 H   0  0  0  0  0  0  0  0  0  0  0  0
    8.8190   21.6850    0.8900 H   0  0  0  0  0  0  0  0  0  0  0  0
    8.8190   21.6850   -0.8900 H   0  0  0  0  0  0  0  0  0  0  0  0
    6.6890   22.7750   -0.8900 H   0  0  0  0  0  0  0  0  0  0  0  0
    6.6890   22.7750    0.8900 H   0  0  0  0  0  0  0  0  0  0  0  0
    6.5690   20.3860    0.8900 H   0  0  0  0  0  0  0  0  0  0  0  0
    6.5690   20.3860   -0.8900 H   0  0  0  0  0  0  0  0  0  0  0  0
    4.4390   21.4760   -0.8900 H   0  0  0  0  0  0  0  0  0  0  0  0
    4.4390   21.4760    0.8900 H   0  0  0  0  0  0  0  0  0  0  0  0
    4.3190   19.0870    0.8900 H   0  0  0  0  0  0  0  0  0  0  0  0
    4.3190   19.0870   -0.8900 H   0  0  0  0  0  0  0  0  0  0  0  0
    2.1890   20.1770   -0.8900 H   0  0  0  0  0  0  0  0  0  0  0  0
    2.1890   20.1770    0.8900 H   0  0  0  0  0  0  0  0  0  0  0  0
    2.0800   18.6280    0.0000 H   0  0  0  0  0  0  0  0  0  0  0  0
   29.5040   17.0340    0.0000 O   0  0  0  0  0  0  0  0  0  0  0  0
   28.7540   15.7350    0.0000 C   0  0  0  0  0  0  0  0  0  0  0  0
   29.5040   14.4360    0.0000 N   0  0  0  0  0  0  0  0  0  0  0  0
   27.2540   15.7350    0.0000 C   0  0  0  0  0  0  0  0  0  0  0  0
   26.9390   15.1900    0.8900 H   0  0  0  0  0  0  0  0  0  0  0  0
   26.9390   15.1900   -0.8900 H   0  0  0  0  0  0  0  0  0  0  0  0
   28.9990   13.5610    0.0000 H   0  0  0  0  0  0  0  0  0  0  0  0
   30.5140   14.4360    0.0000 H   0  0  0  0  0  0  0  0  0  0  0  0
  1  2  1  0  0  0  0
  1 59  1  0  0  0  0
  2  3  1  0  0  0  0
  2 23  1  0  0  0  0
  2 24  1  0  0  0  0
  3  4  1  0  0  0  0
  3 25  1  0  0  0  0
  3 26  1  0  0  0  0
  4  5  1  0  0  0  0
  5  6  1  0  0  0  0
  5 27  1  0  0  0  0
  5 28  1  0  0  0  0
  6  7  1  0  0  0  0
  6 29  1  0  0  0  0
  6 30  1  0  0  0  0
  7  8  1  0  0  0  0
  8  9  1  0  0  0  0
  8 31  1  0  0  0  0
  8 32  1  0  0  0  0
  9 10  1  0  0  0  0
  9 33  1  0  0  0  0
  9 34  1  0  0  0  0
 10 11  1  0  0  0  0
 11 12  1  0  0  0  0
 11 35  1  0  0  0  0
 11 36  1  0  0  0  0
 12 13  1  0  0  0  0
 12 37  1  0  0  0  0
 12 38  1  0  0  0  0
 13 14  1  0  0  0  0
 14 15  1  0  0  0  0
 14 39  1  0  0  0  0
 14 40  1  0  0  0  0
 15 16  1  0  0  0  0
 15 41  1  0  0  0  0
 15 42  1  0  0  0  0
 16 17  1  0  0  0  0
 17 18  1  0  0  0  0
 17 43  1  0  0  0  0
 17 44  1  0  0  0  0
 18 19  1  0  0  0  0
 18 45  1  0  0  0  0
 18 46  1  0  0  0  0
 19 20  1  0  0  0  0
 19 47  1  0  0  0  0
 19 48  1  0  0  0  0
 20 21  1  0  0  0  0
 20 49  1  0  0  0  0
 20 50  1  0  0  0  0
 21 22  1  0  0  0  0
 21 51  1  0  0  0  0
 21 52  1  0  0  0  0
 22 53  1  0  0  0  0
 22 54  1  0  0  0  0
 22 55  1  0  0  0  0
 56 57  2  0  0  0  0
 57 58  1  0  0  0  0
 57 59  1  0  0  0  0
 58 62  1  0  0  0  0
 58 63  1  0  0  0  0
 59 60  1  0  0  0  0
 59 61  1  0  0  0  0
M  END
