2hyy_2.pdb
  MOE2019           3D

 28 27  0  0  0  0  0  0  0  0999 V2000
   11.8540    6.3540    0.0000 O   0  0  0  0  0  0  0  0  0  0  0  0
   12.5630    7.0010    0.0000 H   0  0  0  0  0  0  0  0  0  0  0  0
   10.5550    7.1040    0.0000 C   0  0  0  0  0  0  0  0  0  0  0  0
    9.2560    6.3540    0.0000 C   0  0  0  0  0  0  0  0  0  0  0  0
    7.9570    7.1040    0.0000 O   0  0  0  0  0  0  0  0  0  0  0  0
    6.6580    6.3540    0.0000 C   0  0  0  0  0  0  0  0  0  0  0  0
    5.3590    7.1040    0.0000 C   0  0  0  0  0  0  0  0  0  0  0  0
    4.0600    6.3540    0.0000 C   0  0  0  0  0  0  0  0  0  0  0  0
    2.7610    7.1040    0.0000 C   0  0  0  0  0  0  0  0  0  0  0  0
    1.4620    6.3540    0.0000 C   0  0  0  0  0  0  0  0  0  0  0  0
    0.1630    7.1040    0.0000 C   0  0  0  0  0  0  0  0  0  0  0  0
   10.5550    7.7330    0.8900 H   0  0  0  0  0  0  0  0  0  0  0  0
   10.5550    7.7330   -0.8900 H   0  0  0  0  0  0  0  0  0  0  0  0
    9.2560    5.7250    0.8900 H   0  0  0  0  0  0  0  0  0  0  0  0
    9.2560    5.7250   -0.8900 H   0  0  0  0  0  0  0  0  0  0  0  0
    6.6580    5.7250   -0.8900 H   0  0  0  0  0  0  0  0  0  0  0  0
    6.6580    5.7250    0.8900 H   0  0  0  0  0  0  0  0  0  0  0  0
    5.3590    7.7330    0.8900 H   0  0  0  0  0  0  0  0  0  0  0  0
    5.3590    7.7330   -0.8900 H   0  0  0  0  0  0  0  0  0  0  0  0
    4.0600    5.7250   -0.8900 H   0  0  0  0  0  0  0  0  0  0  0  0
    4.0600    5.7250    0.8900 H   0  0  0  0  0  0  0  0  0  0  0  0
    2.7610    7.7330   -0.8900 H   0  0  0  0  0  0  0  0  0  0  0  0
    2.7610    7.7330    0.8900 H   0  0  0  0  0  0  0  0  0  0  0  0
    1.4620    5.7250    0.8900 H   0  0  0  0  0  0  0  0  0  0  0  0
    1.4620    5.7250   -0.8900 H   0  0  0  0  0  0  0  0  0  0  0  0
    0.1630    7.7330   -0.8900 H   0  0  0  0  0  0  0  0  0  0  0  0
    0.1630    7.7330    0.8900 H   0  0  0  0  0  0  0  0  0  0  0  0
   -0.7070    6.4470    0.0000 H   0  0  0  0  0  0  0  0  0  0  0  0
  1  2  1  0  0  0  0
  1  3  1  0  0  0  0
  3  4  1  0  0  0  0
  3 12  1  0  0  0  0
  3 13  1  0  0  0  0
  4  5  1  0  0  0  0
  4 14  1  0  0  0  0
  4 15  1  0  0  0  0
  5  6  1  0  0  0  0
  6  7  1  0  0  0  0
  6 16  1  0  0  0  0
  6 17  1  0  0  0  0
  7  8  1  0  0  0  0
  7 18  1  0  0  0  0
  7 19  1  0  0  0  0
  8  9  1  0  0  0  0
  8 20  1  0  0  0  0
  8 21  1  0  0  0  0
  9 10  1  0  0  0  0
  9 22  1  0  0  0  0
  9 23  1  0  0  0  0
 10 11  1  0  0  0  0
 10 24  1  0  0  0  0
 10 25  1  0  0  0  0
 11 26  1  0  0  0  0
 11 27  1  0  0  0  0
 11 28  1  0  0  0  0
M  END
