2hyy_12.pdb
  MOE2019           3D

 20 20  0  0  0  0  0  0  0  0999 V2000
   -2.8670    1.2230    0.0000 C   0  0  0  0  0  0  0  0  0  0  0  0
   -4.1840    0.5040    0.0000 C   0  0  0  0  0  0  0  0  0  0  0  0
   -5.4650    1.2850    0.0000 C   0  0  0  0  0  0  0  0  0  0  0  0
   -5.5860    2.7800    0.0000 N   0  0  0  0  0  0  0  0  0  0  0  0
   -7.0450    3.1260    0.0000 N   0  0  0  0  0  0  0  0  0  0  0  0
   -7.8260    1.8450    0.0000 N   0  0  0  0  0  0  0  0  0  0  0  0
   -9.3210    1.7240    0.0000 C   0  0  0  0  0  0  0  0  0  0  0  0
  -10.1740    2.9580    0.0000 C   0  0  0  0  0  0  0  0  0  0  0  0
   -6.8490    0.7070    0.0000 C   0  0  0  0  0  0  0  0  0  0  0  0
   -2.8520    1.8520   -0.8900 H   0  0  0  0  0  0  0  0  0  0  0  0
   -2.0130    0.5450    0.0000 H   0  0  0  0  0  0  0  0  0  0  0  0
   -2.8520    1.8520    0.8900 H   0  0  0  0  0  0  0  0  0  0  0  0
   -4.1990   -0.1250    0.8900 H   0  0  0  0  0  0  0  0  0  0  0  0
   -4.1990   -0.1250   -0.8900 H   0  0  0  0  0  0  0  0  0  0  0  0
   -9.5910    1.1550    0.8900 H   0  0  0  0  0  0  0  0  0  0  0  0
   -9.5910    1.1550   -0.8900 H   0  0  0  0  0  0  0  0  0  0  0  0
   -9.9040    3.5270   -0.8900 H   0  0  0  0  0  0  0  0  0  0  0  0
  -11.2410    2.7360    0.0000 H   0  0  0  0  0  0  0  0  0  0  0  0
   -9.9040    3.5270    0.8900 H   0  0  0  0  0  0  0  0  0  0  0  0
   -7.0980   -0.3440    0.0000 H   0  0  0  0  0  0  0  0  0  0  0  0
  1  2  1  0  0  0  0
  1 10  1  0  0  0  0
  1 11  1  0  0  0  0
  1 12  1  0  0  0  0
  2  3  1  0  0  0  0
  2 13  1  0  0  0  0
  2 14  1  0  0  0  0
  3  4  1  0  0  0  0
  3  9  2  0  0  0  0
  4  5  2  0  0  0  0
  5  6  1  0  0  0  0
  6  7  1  0  0  0  0
  6  9  1  0  0  0  0
  7  8  1  0  0  0  0
  7 15  1  0  0  0  0
  7 16  1  0  0  0  0
  8 17  1  0  0  0  0
  8 18  1  0  0  0  0
  8 19  1  0  0  0  0
  9 20  1  0  0  0  0
M  END
