2hyy_13.pdb
  MOE2019           3D

 27 27  0  0  0  0  0  0  0  0999 V2000
    6.5800    0.4430    0.0000 C   0  0  0  0  0  0  0  0  0  0  0  0
    7.3710   -0.8320    0.0000 C   0  0  0  0  0  0  0  0  0  0  0  0
    8.8700   -0.7850    0.0000 C   0  0  0  0  0  0  0  0  0  0  0  0
    9.7130    0.4560    0.0000 N   0  0  0  0  0  0  0  0  0  0  0  0
   11.1540    0.0370    0.0000 N   0  0  0  0  0  0  0  0  0  0  0  0
   11.2010   -1.4620    0.0000 N   0  0  0  0  0  0  0  0  0  0  0  0
   12.4410   -2.3050    0.0000 C   0  0  0  0  0  0  0  0  0  0  0  0
   13.7920   -1.6520    0.0000 C   0  0  0  0  0  0  0  0  0  0  0  0
   15.0330   -2.4950    0.0000 O   0  0  0  0  0  0  0  0  0  0  0  0
   16.3830   -1.8420    0.0000 C   0  0  0  0  0  0  0  0  0  0  0  0
   17.6240   -2.6850    0.0000 C   0  0  0  0  0  0  0  0  0  0  0  0
    9.7900   -1.9700    0.0000 C   0  0  0  0  0  0  0  0  0  0  0  0
    6.8770    0.9980    0.8900 H   0  0  0  0  0  0  0  0  0  0  0  0
    5.5030    0.2740    0.0000 H   0  0  0  0  0  0  0  0  0  0  0  0
    6.8770    0.9980   -0.8900 H   0  0  0  0  0  0  0  0  0  0  0  0
    7.0740   -1.3870   -0.8900 H   0  0  0  0  0  0  0  0  0  0  0  0
    7.0740   -1.3870    0.8900 H   0  0  0  0  0  0  0  0  0  0  0  0
   12.3950   -2.9330   -0.8900 H   0  0  0  0  0  0  0  0  0  0  0  0
   12.3950   -2.9330    0.8900 H   0  0  0  0  0  0  0  0  0  0  0  0
   13.8380   -1.0240    0.8900 H   0  0  0  0  0  0  0  0  0  0  0  0
   13.8380   -1.0240   -0.8900 H   0  0  0  0  0  0  0  0  0  0  0  0
   16.4290   -1.2140    0.8900 H   0  0  0  0  0  0  0  0  0  0  0  0
   16.4290   -1.2140   -0.8900 H   0  0  0  0  0  0  0  0  0  0  0  0
   17.5780   -3.3130   -0.8900 H   0  0  0  0  0  0  0  0  0  0  0  0
   18.5390   -2.0930    0.0000 H   0  0  0  0  0  0  0  0  0  0  0  0
   17.5780   -3.3130    0.8900 H   0  0  0  0  0  0  0  0  0  0  0  0
    9.4890   -3.0070    0.0000 H   0  0  0  0  0  0  0  0  0  0  0  0
  1  2  1  0  0  0  0
  1 13  1  0  0  0  0
  1 14  1  0  0  0  0
  1 15  1  0  0  0  0
  2  3  1  0  0  0  0
  2 16  1  0  0  0  0
  2 17  1  0  0  0  0
  3  4  1  0  0  0  0
  3 12  2  0  0  0  0
  4  5  2  0  0  0  0
  5  6  1  0  0  0  0
  6  7  1  0  0  0  0
  6 12  1  0  0  0  0
  7  8  1  0  0  0  0
  7 18  1  0  0  0  0
  7 19  1  0  0  0  0
  8  9  1  0  0  0  0
  8 20  1  0  0  0  0
  8 21  1  0  0  0  0
  9 10  1  0  0  0  0
 10 11  1  0  0  0  0
 10 22  1  0  0  0  0
 10 23  1  0  0  0  0
 11 24  1  0  0  0  0
 11 25  1  0  0  0  0
 11 26  1  0  0  0  0
 12 27  1  0  0  0  0
M  END
