2hyy_3.pdb
  MOE2019           3D

 56 55  0  0  0  0  0  0  0  0999 V2000
  -14.0570   15.9570    0.0000 O   0  0  0  0  0  0  0  0  0  0  0  0
  -14.7660   15.3100    0.0000 H   0  0  0  0  0  0  0  0  0  0  0  0
  -12.7580   15.2070    0.0000 C   0  0  0  0  0  0  0  0  0  0  0  0
  -11.4590   15.9570    0.0000 C   0  0  0  0  0  0  0  0  0  0  0  0
  -10.1600   15.2070    0.0000 O   0  0  0  0  0  0  0  0  0  0  0  0
   -8.8610   15.9570    0.0000 C   0  0  0  0  0  0  0  0  0  0  0  0
   -7.5620   15.2070    0.0000 C   0  0  0  0  0  0  0  0  0  0  0  0
   -6.2620   15.9570    0.0000 O   0  0  0  0  0  0  0  0  0  0  0  0
   -4.9630   15.2070    0.0000 C   0  0  0  0  0  0  0  0  0  0  0  0
   -3.6640   15.9570    0.0000 C   0  0  0  0  0  0  0  0  0  0  0  0
   -2.3650   15.2070    0.0000 O   0  0  0  0  0  0  0  0  0  0  0  0
   -1.0660   15.9570    0.0000 C   0  0  0  0  0  0  0  0  0  0  0  0
    0.2330   15.2070    0.0000 C   0  0  0  0  0  0  0  0  0  0  0  0
    1.5320   15.9570    0.0000 O   0  0  0  0  0  0  0  0  0  0  0  0
    2.8310   15.2070    0.0000 C   0  0  0  0  0  0  0  0  0  0  0  0
    4.1300   15.9570    0.0000 C   0  0  0  0  0  0  0  0  0  0  0  0
    5.4290   15.2070    0.0000 O   0  0  0  0  0  0  0  0  0  0  0  0
    6.7280   15.9570    0.0000 C   0  0  0  0  0  0  0  0  0  0  0  0
    6.7280   17.4570    0.0000 C   0  0  0  0  0  0  0  0  0  0  0  0
    8.0270   18.2070    0.0000 C   0  0  0  0  0  0  0  0  0  0  0  0
    8.0270   19.7070    0.0000 C   0  0  0  0  0  0  0  0  0  0  0  0
    9.3260   20.4570    0.0000 C   0  0  0  0  0  0  0  0  0  0  0  0
    9.3260   21.9570    0.0000 C   0  0  0  0  0  0  0  0  0  0  0  0
  -12.7580   14.5780    0.8900 H   0  0  0  0  0  0  0  0  0  0  0  0
  -12.7580   14.5780   -0.8900 H   0  0  0  0  0  0  0  0  0  0  0  0
  -11.4590   16.5860    0.8900 H   0  0  0  0  0  0  0  0  0  0  0  0
  -11.4590   16.5860   -0.8900 H   0  0  0  0  0  0  0  0  0  0  0  0
   -8.8610   16.5860   -0.8900 H   0  0  0  0  0  0  0  0  0  0  0  0
   -8.8610   16.5860    0.8900 H   0  0  0  0  0  0  0  0  0  0  0  0
   -7.5620   14.5780   -0.8900 H   0  0  0  0  0  0  0  0  0  0  0  0
   -7.5620   14.5780    0.8900 H   0  0  0  0  0  0  0  0  0  0  0  0
   -4.9630   14.5780    0.8900 H   0  0  0  0  0  0  0  0  0  0  0  0
   -4.9630   14.5780   -0.8900 H   0  0  0  0  0  0  0  0  0  0  0  0
   -3.6640   16.5860    0.8900 H   0  0  0  0  0  0  0  0  0  0  0  0
   -3.6640   16.5860   -0.8900 H   0  0  0  0  0  0  0  0  0  0  0  0
   -1.0660   16.5860   -0.8900 H   0  0  0  0  0  0  0  0  0  0  0  0
   -1.0660   16.5860    0.8900 H   0  0  0  0  0  0  0  0  0  0  0  0
    0.2330   14.5780   -0.8900 H   0  0  0  0  0  0  0  0  0  0  0  0
    0.2330   14.5780    0.8900 H   0  0  0  0  0  0  0  0  0  0  0  0
    2.8310   14.5780    0.8900 H   0  0  0  0  0  0  0  0  0  0  0  0
    2.8310   14.5780   -0.8900 H   0  0  0  0  0  0  0  0  0  0  0  0
    4.1300   16.5860    0.8900 H   0  0  0  0  0  0  0  0  0  0  0  0
    4.1300   16.5860   -0.8900 H   0  0  0  0  0  0  0  0  0  0  0  0
    7.2730   15.6420    0.8900 H   0  0  0  0  0  0  0  0  0  0  0  0
    7.2730   15.6420   -0.8900 H   0  0  0  0  0  0  0  0  0  0  0  0
    6.1830   17.7720   -0.8900 H   0  0  0  0  0  0  0  0  0  0  0  0
    6.1830   17.7720    0.8900 H   0  0  0  0  0  0  0  0  0  0  0  0
    8.5720   17.8920    0.8900 H   0  0  0  0  0  0  0  0  0  0  0  0
    8.5720   17.8920   -0.8900 H   0  0  0  0  0  0  0  0  0  0  0  0
    7.4820   20.0220    0.8900 H   0  0  0  0  0  0  0  0  0  0  0  0
    7.4820   20.0220   -0.8900 H   0  0  0  0  0  0  0  0  0  0  0  0
    9.8710   20.1420   -0.8900 H   0  0  0  0  0  0  0  0  0  0  0  0
    9.8710   20.1420    0.8900 H   0  0  0  0  0  0  0  0  0  0  0  0
    8.7810   22.2720    0.8900 H   0  0  0  0  0  0  0  0  0  0  0  0
    8.7810   22.2720   -0.8900 H   0  0  0  0  0  0  0  0  0  0  0  0
   10.3300   22.3810    0.0000 H   0  0  0  0  0  0  0  0  0  0  0  0
  1  2  1  0  0  0  0
  1  3  1  0  0  0  0
  3  4  1  0  0  0  0
  3 24  1  0  0  0  0
  3 25  1  0  0  0  0
  4  5  1  0  0  0  0
  4 26  1  0  0  0  0
  4 27  1  0  0  0  0
  5  6  1  0  0  0  0
  6  7  1  0  0  0  0
  6 28  1  0  0  0  0
  6 29  1  0  0  0  0
  7  8  1  0  0  0  0
  7 30  1  0  0  0  0
  7 31  1  0  0  0  0
  8  9  1  0  0  0  0
  9 10  1  0  0  0  0
  9 32  1  0  0  0  0
  9 33  1  0  0  0  0
 10 11  1  0  0  0  0
 10 34  1  0  0  0  0
 10 35  1  0  0  0  0
 11 12  1  0  0  0  0
 12 13  1  0  0  0  0
 12 36  1  0  0  0  0
 12 37  1  0  0  0  0
 13 14  1  0  0  0  0
 13 38  1  0  0  0  0
 13 39  1  0  0  0  0
 14 15  1  0  0  0  0
 15 16  1  0  0  0  0
 15 40  1  0  0  0  0
 15 41  1  0  0  0  0
 16 17  1  0  0  0  0
 16 42  1  0  0  0  0
 16 43  1  0  0  0  0
 17 18  1  0  0  0  0
 18 19  1  0  0  0  0
 18 44  1  0  0  0  0
 18 45  1  0  0  0  0
 19 20  1  0  0  0  0
 19 46  1  0  0  0  0
 19 47  1  0  0  0  0
 20 21  1  0  0  0  0
 20 48  1  0  0  0  0
 20 49  1  0  0  0  0
 21 22  1  0  0  0  0
 21 50  1  0  0  0  0
 21 51  1  0  0  0  0
 22 23  1  0  0  0  0
 22 52  1  0  0  0  0
 22 53  1  0  0  0  0
 23 54  1  0  0  0  0
 23 55  1  0  0  0  0
 23 56  1  0  0  0  0
M  END
