2hyy_16.pdb
  MOE2019           3D

 48 48  0  0  0  0  0  0  0  0999 V2000
    3.5880    8.2120    0.0000 C   0  0  0  0  0  0  0  0  0  0  0  0
    4.9160    7.5150    0.0000 C   0  0  0  0  0  0  0  0  0  0  0  0
    6.1840    8.3170    0.0000 C   0  0  0  0  0  0  0  0  0  0  0  0
    6.2800    9.8140    0.0000 N   0  0  0  0  0  0  0  0  0  0  0  0
    7.7330   10.1850    0.0000 N   0  0  0  0  0  0  0  0  0  0  0  0
    8.5350    8.9170    0.0000 N   0  0  0  0  0  0  0  0  0  0  0  0
   10.0320    8.8210    0.0000 C   0  0  0  0  0  0  0  0  0  0  0  0
   10.6970    7.4760    0.0000 C   0  0  0  0  0  0  0  0  0  0  0  0
   12.1940    7.3790    0.0000 O   0  0  0  0  0  0  0  0  0  0  0  0
   12.8590    6.0350    0.0000 C   0  0  0  0  0  0  0  0  0  0  0  0
   14.3560    5.9380    0.0000 C   0  0  0  0  0  0  0  0  0  0  0  0
   15.0210    4.5940    0.0000 O   0  0  0  0  0  0  0  0  0  0  0  0
   16.5170    4.4970    0.0000 C   0  0  0  0  0  0  0  0  0  0  0  0
   17.1820    3.1530    0.0000 C   0  0  0  0  0  0  0  0  0  0  0  0
   18.6790    3.0560    0.0000 O   0  0  0  0  0  0  0  0  0  0  0  0
   19.3440    1.7110    0.0000 C   0  0  0  0  0  0  0  0  0  0  0  0
   20.8410    1.6150    0.0000 C   0  0  0  0  0  0  0  0  0  0  0  0
   21.5060    0.2700    0.0000 O   0  0  0  0  0  0  0  0  0  0  0  0
   23.0030    0.1740    0.0000 C   0  0  0  0  0  0  0  0  0  0  0  0
   23.6680   -1.1710    0.0000 C   0  0  0  0  0  0  0  0  0  0  0  0
    7.5770    7.7630    0.0000 C   0  0  0  0  0  0  0  0  0  0  0  0
    3.5630    8.8410    0.8900 H   0  0  0  0  0  0  0  0  0  0  0  0
    2.7460    7.5200    0.0000 H   0  0  0  0  0  0  0  0  0  0  0  0
    3.5630    8.8410   -0.8900 H   0  0  0  0  0  0  0  0  0  0  0  0
    4.9410    6.8860   -0.8900 H   0  0  0  0  0  0  0  0  0  0  0  0
    4.9410    6.8860    0.8900 H   0  0  0  0  0  0  0  0  0  0  0  0
   10.3810    9.3450    0.8900 H   0  0  0  0  0  0  0  0  0  0  0  0
   10.3810    9.3450   -0.8900 H   0  0  0  0  0  0  0  0  0  0  0  0
   10.3480    6.9520   -0.8900 H   0  0  0  0  0  0  0  0  0  0  0  0
   10.3480    6.9520    0.8900 H   0  0  0  0  0  0  0  0  0  0  0  0
   12.5100    5.5110   -0.8900 H   0  0  0  0  0  0  0  0  0  0  0  0
   12.5100    5.5110    0.8900 H   0  0  0  0  0  0  0  0  0  0  0  0
   14.7050    6.4620    0.8900 H   0  0  0  0  0  0  0  0  0  0  0  0
   14.7050    6.4620   -0.8900 H   0  0  0  0  0  0  0  0  0  0  0  0
   16.8660    5.0210    0.8900 H   0  0  0  0  0  0  0  0  0  0  0  0
   16.8660    5.0210   -0.8900 H   0  0  0  0  0  0  0  0  0  0  0  0
   16.8330    2.6290   -0.8900 H   0  0  0  0  0  0  0  0  0  0  0  0
   16.8330    2.6290    0.8900 H   0  0  0  0  0  0  0  0  0  0  0  0
   18.9950    1.1870   -0.8900 H   0  0  0  0  0  0  0  0  0  0  0  0
   18.9950    1.1870    0.8900 H   0  0  0  0  0  0  0  0  0  0  0  0
   21.1900    2.1390    0.8900 H   0  0  0  0  0  0  0  0  0  0  0  0
   21.1900    2.1390   -0.8900 H   0  0  0  0  0  0  0  0  0  0  0  0
   23.3520    0.6980    0.8900 H   0  0  0  0  0  0  0  0  0  0  0  0
   23.3520    0.6980   -0.8900 H   0  0  0  0  0  0  0  0  0  0  0  0
   23.3190   -1.6950   -0.8900 H   0  0  0  0  0  0  0  0  0  0  0  0
   24.7560   -1.1060    0.0000 H   0  0  0  0  0  0  0  0  0  0  0  0
   23.3190   -1.6950    0.8900 H   0  0  0  0  0  0  0  0  0  0  0  0
    7.8440    6.7160    0.0000 H   0  0  0  0  0  0  0  0  0  0  0  0
  1  2  1  0  0  0  0
  1 22  1  0  0  0  0
  1 23  1  0  0  0  0
  1 24  1  0  0  0  0
  2  3  1  0  0  0  0
  2 25  1  0  0  0  0
  2 26  1  0  0  0  0
  3  4  1  0  0  0  0
  3 21  2  0  0  0  0
  4  5  2  0  0  0  0
  5  6  1  0  0  0  0
  6  7  1  0  0  0  0
  6 21  1  0  0  0  0
  7  8  1  0  0  0  0
  7 27  1  0  0  0  0
  7 28  1  0  0  0  0
  8  9  1  0  0  0  0
  8 29  1  0  0  0  0
  8 30  1  0  0  0  0
  9 10  1  0  0  0  0
 10 11  1  0  0  0  0
 10 31  1  0  0  0  0
 10 32  1  0  0  0  0
 11 12  1  0  0  0  0
 11 33  1  0  0  0  0
 11 34  1  0  0  0  0
 12 13  1  0  0  0  0
 13 14  1  0  0  0  0
 13 35  1  0  0  0  0
 13 36  1  0  0  0  0
 14 15  1  0  0  0  0
 14 37  1  0  0  0  0
 14 38  1  0  0  0  0
 15 16  1  0  0  0  0
 16 17  1  0  0  0  0
 16 39  1  0  0  0  0
 16 40  1  0  0  0  0
 17 18  1  0  0  0  0
 17 41  1  0  0  0  0
 17 42  1  0  0  0  0
 18 19  1  0  0  0  0
 19 20  1  0  0  0  0
 19 43  1  0  0  0  0
 19 44  1  0  0  0  0
 20 45  1  0  0  0  0
 20 46  1  0  0  0  0
 20 47  1  0  0  0  0
 21 48  1  0  0  0  0
M  END
