2hyy_8.pdb
  MOE2019           3D

 56 55  0  0  0  0  0  0  0  0999 V2000
   20.4490   21.5470    0.0000 C   0  0  0  0  0  0  0  0  0  0  0  0
   20.4490   22.1760    0.8900 H   0  0  0  0  0  0  0  0  0  0  0  0
   20.4490   22.1760   -0.8900 H   0  0  0  0  0  0  0  0  0  0  0  0
   19.1500   20.7970    0.0000 C   0  0  0  0  0  0  0  0  0  0  0  0
   17.8510   21.5470    0.0000 C   0  0  0  0  0  0  0  0  0  0  0  0
   16.5520   20.7970    0.0000 C   0  0  0  0  0  0  0  0  0  0  0  0
   15.2530   21.5470    0.0000 O   0  0  0  0  0  0  0  0  0  0  0  0
   13.9540   20.7970    0.0000 C   0  0  0  0  0  0  0  0  0  0  0  0
   12.6550   21.5470    0.0000 C   0  0  0  0  0  0  0  0  0  0  0  0
   11.3560   20.7970    0.0000 C   0  0  0  0  0  0  0  0  0  0  0  0
   10.0570   21.5470    0.0000 C   0  0  0  0  0  0  0  0  0  0  0  0
    8.7580   20.7970    0.0000 C   0  0  0  0  0  0  0  0  0  0  0  0
    7.4590   21.5470    0.0000 O   0  0  0  0  0  0  0  0  0  0  0  0
    6.1600   20.7970    0.0000 C   0  0  0  0  0  0  0  0  0  0  0  0
    4.8610   21.5470    0.0000 C   0  0  0  0  0  0  0  0  0  0  0  0
    3.5620   20.7970    0.0000 C   0  0  0  0  0  0  0  0  0  0  0  0
    2.2630   21.5470    0.0000 C   0  0  0  0  0  0  0  0  0  0  0  0
    0.9640   20.7970    0.0000 C   0  0  0  0  0  0  0  0  0  0  0  0
   -0.3350   21.5470    0.0000 C   0  0  0  0  0  0  0  0  0  0  0  0
   19.1500   20.1680    0.8900 H   0  0  0  0  0  0  0  0  0  0  0  0
   19.1500   20.1680   -0.8900 H   0  0  0  0  0  0  0  0  0  0  0  0
   17.8510   22.1760   -0.8900 H   0  0  0  0  0  0  0  0  0  0  0  0
   17.8510   22.1760    0.8900 H   0  0  0  0  0  0  0  0  0  0  0  0
   16.5520   20.1680    0.8900 H   0  0  0  0  0  0  0  0  0  0  0  0
   16.5520   20.1680   -0.8900 H   0  0  0  0  0  0  0  0  0  0  0  0
   13.9540   20.1680    0.8900 H   0  0  0  0  0  0  0  0  0  0  0  0
   13.9540   20.1680   -0.8900 H   0  0  0  0  0  0  0  0  0  0  0  0
   12.6550   22.1760   -0.8900 H   0  0  0  0  0  0  0  0  0  0  0  0
   12.6550   22.1760    0.8900 H   0  0  0  0  0  0  0  0  0  0  0  0
   11.3560   20.1680    0.8900 H   0  0  0  0  0  0  0  0  0  0  0  0
   11.3560   20.1680   -0.8900 H   0  0  0  0  0  0  0  0  0  0  0  0
   10.0570   22.1760   -0.8900 H   0  0  0  0  0  0  0  0  0  0  0  0
   10.0570   22.1760    0.8900 H   0  0  0  0  0  0  0  0  0  0  0  0
    8.7580   20.1680    0.8900 H   0  0  0  0  0  0  0  0  0  0  0  0
    8.7580   20.1680   -0.8900 H   0  0  0  0  0  0  0  0  0  0  0  0
    6.1600   20.1680    0.8900 H   0  0  0  0  0  0  0  0  0  0  0  0
    6.1600   20.1680   -0.8900 H   0  0  0  0  0  0  0  0  0  0  0  0
    4.8610   22.1760   -0.8900 H   0  0  0  0  0  0  0  0  0  0  0  0
    4.8610   22.1760    0.8900 H   0  0  0  0  0  0  0  0  0  0  0  0
    3.5620   20.1680    0.8900 H   0  0  0  0  0  0  0  0  0  0  0  0
    3.5620   20.1680   -0.8900 H   0  0  0  0  0  0  0  0  0  0  0  0
    2.2630   22.1760   -0.8900 H   0  0  0  0  0  0  0  0  0  0  0  0
    2.2630   22.1760    0.8900 H   0  0  0  0  0  0  0  0  0  0  0  0
    0.9640   20.1680    0.8900 H   0  0  0  0  0  0  0  0  0  0  0  0
    0.9640   20.1680   -0.8900 H   0  0  0  0  0  0  0  0  0  0  0  0
   -0.3350   22.1760   -0.8900 H   0  0  0  0  0  0  0  0  0  0  0  0
   -0.3350   22.1760    0.8900 H   0  0  0  0  0  0  0  0  0  0  0  0
   -1.2050   20.8900    0.0000 H   0  0  0  0  0  0  0  0  0  0  0  0
   23.0470   23.0470    0.0000 O   0  0  0  0  0  0  0  0  0  0  0  0
   23.0470   21.5470    0.0000 C   0  0  0  0  0  0  0  0  0  0  0  0
   24.3460   20.7970    0.0000 N   0  0  0  0  0  0  0  0  0  0  0  0
   21.7480   20.7970    0.0000 C   0  0  0  0  0  0  0  0  0  0  0  0
   21.7480   20.1680    0.8900 H   0  0  0  0  0  0  0  0  0  0  0  0
   21.7480   20.1680   -0.8900 H   0  0  0  0  0  0  0  0  0  0  0  0
   24.3460   19.7870    0.0000 H   0  0  0  0  0  0  0  0  0  0  0  0
   25.2210   21.3020    0.0000 H   0  0  0  0  0  0  0  0  0  0  0  0
  1  2  1  0  0  0  0
  1  3  1  0  0  0  0
  1  4  1  0  0  0  0
  1 52  1  0  0  0  0
  4  5  1  0  0  0  0
  4 20  1  0  0  0  0
  4 21  1  0  0  0  0
  5  6  1  0  0  0  0
  5 22  1  0  0  0  0
  5 23  1  0  0  0  0
  6  7  1  0  0  0  0
  6 24  1  0  0  0  0
  6 25  1  0  0  0  0
  7  8  1  0  0  0  0
  8  9  1  0  0  0  0
  8 26  1  0  0  0  0
  8 27  1  0  0  0  0
  9 10  1  0  0  0  0
  9 28  1  0  0  0  0
  9 29  1  0  0  0  0
 10 11  1  0  0  0  0
 10 30  1  0  0  0  0
 10 31  1  0  0  0  0
 11 12  1  0  0  0  0
 11 32  1  0  0  0  0
 11 33  1  0  0  0  0
 12 13  1  0  0  0  0
 12 34  1  0  0  0  0
 12 35  1  0  0  0  0
 13 14  1  0  0  0  0
 14 15  1  0  0  0  0
 14 36  1  0  0  0  0
 14 37  1  0  0  0  0
 15 16  1  0  0  0  0
 15 38  1  0  0  0  0
 15 39  1  0  0  0  0
 16 17  1  0  0  0  0
 16 40  1  0  0  0  0
 16 41  1  0  0  0  0
 17 18  1  0  0  0  0
 17 42  1  0  0  0  0
 17 43  1  0  0  0  0
 18 19  1  0  0  0  0
 18 44  1  0  0  0  0
 18 45  1  0  0  0  0
 19 46  1  0  0  0  0
 19 47  1  0  0  0  0
 19 48  1  0  0  0  0
 49 50  2  0  0  0  0
 50 51  1  0  0  0  0
 50 52  1  0  0  0  0
 51 55  1  0  0  0  0
 51 56  1  0  0  0  0
 52 53  1  0  0  0  0
 52 54  1  0  0  0  0
M  END
