2vti_10.pdb
  MOE2019           3D

 47 46  0  0  0  0  0  0  0  0999 V2000
   13.2650    0.3370    0.0000 C   0  0  0  0  0  0  0  0  0  0  0  0
   14.0150   -0.9620    0.0000 C   0  0  0  0  0  0  0  0  0  0  0  0
   13.2650   -2.2610    0.0000 O   0  0  0  0  0  0  0  0  0  0  0  0
   15.5150   -0.9620    0.0000 N   0  0  0  0  0  0  0  0  0  0  0  0
   16.2650    0.3370    0.0000 C   0  0  0  0  0  0  0  0  0  0  0  0
   17.7650    0.3370    0.0000 C   0  0  0  0  0  0  0  0  0  0  0  0
   18.5150    1.6360    0.0000 C   0  0  0  0  0  0  0  0  0  0  0  0
   20.0150    1.6360    0.0000 O   0  0  0  0  0  0  0  0  0  0  0  0
   20.7650    2.9350    0.0000 C   0  0  0  0  0  0  0  0  0  0  0  0
   22.2650    2.9350    0.0000 C   0  0  0  0  0  0  0  0  0  0  0  0
   23.0150    4.2340    0.0000 O   0  0  0  0  0  0  0  0  0  0  0  0
   24.5150    4.2340    0.0000 C   0  0  0  0  0  0  0  0  0  0  0  0
   25.2650    5.5330    0.0000 C   0  0  0  0  0  0  0  0  0  0  0  0
   26.7650    5.5330    0.0000 O   0  0  0  0  0  0  0  0  0  0  0  0
   27.5150    6.8320    0.0000 C   0  0  0  0  0  0  0  0  0  0  0  0
   29.0150    6.8320    0.0000 C   0  0  0  0  0  0  0  0  0  0  0  0
   29.7650    8.1310    0.0000 N   0  0  0  0  0  0  0  0  0  0  0  0
   31.2650    8.1310    0.0000 C   0  0  0  0  0  0  0  0  0  0  0  0
   32.0150    6.8320    0.0000 O   0  0  0  0  0  0  0  0  0  0  0  0
   32.0150    9.4300    0.0000 C   0  0  0  0  0  0  0  0  0  0  0  0
   33.5150    9.4300    0.0000 O   0  0  0  0  0  0  0  0  0  0  0  0
   33.8050    8.9520    0.7800 H   0  0  0  0  0  0  0  0  0  0  0  0
   13.5800    0.8820    0.8900 H   0  0  0  0  0  0  0  0  0  0  0  0
   12.1830    0.2030    0.0000 H   0  0  0  0  0  0  0  0  0  0  0  0
   13.5800    0.8820   -0.8900 H   0  0  0  0  0  0  0  0  0  0  0  0
   16.0200   -1.8370    0.0000 H   0  0  0  0  0  0  0  0  0  0  0  0
   15.9500    0.8820    0.8900 H   0  0  0  0  0  0  0  0  0  0  0  0
   15.9500    0.8820   -0.8900 H   0  0  0  0  0  0  0  0  0  0  0  0
   18.0800   -0.2080   -0.8900 H   0  0  0  0  0  0  0  0  0  0  0  0
   18.0800   -0.2080    0.8900 H   0  0  0  0  0  0  0  0  0  0  0  0
   18.2000    2.1810    0.8900 H   0  0  0  0  0  0  0  0  0  0  0  0
   18.2000    2.1810   -0.8900 H   0  0  0  0  0  0  0  0  0  0  0  0
   20.4500    3.4800    0.8900 H   0  0  0  0  0  0  0  0  0  0  0  0
   20.4500    3.4800   -0.8900 H   0  0  0  0  0  0  0  0  0  0  0  0
   22.5800    2.3900   -0.8900 H   0  0  0  0  0  0  0  0  0  0  0  0
   22.5800    2.3900    0.8900 H   0  0  0  0  0  0  0  0  0  0  0  0
   24.8300    3.6890   -0.8900 H   0  0  0  0  0  0  0  0  0  0  0  0
   24.8300    3.6890    0.8900 H   0  0  0  0  0  0  0  0  0  0  0  0
   24.9500    6.0780    0.8900 H   0  0  0  0  0  0  0  0  0  0  0  0
   24.9500    6.0780   -0.8900 H   0  0  0  0  0  0  0  0  0  0  0  0
   27.2000    7.3770    0.8900 H   0  0  0  0  0  0  0  0  0  0  0  0
   27.2000    7.3770   -0.8900 H   0  0  0  0  0  0  0  0  0  0  0  0
   29.3300    6.2870   -0.8900 H   0  0  0  0  0  0  0  0  0  0  0  0
   29.3300    6.2870    0.8900 H   0  0  0  0  0  0  0  0  0  0  0  0
   29.2600    9.0060    0.0000 H   0  0  0  0  0  0  0  0  0  0  0  0
   31.7000    9.9750    0.8900 H   0  0  0  0  0  0  0  0  0  0  0  0
   31.7000    9.9750   -0.8900 H   0  0  0  0  0  0  0  0  0  0  0  0
  1  2  1  0  0  0  0
  1 23  1  0  0  0  0
  1 24  1  0  0  0  0
  1 25  1  0  0  0  0
  2  3  2  0  0  0  0
  2  4  1  0  0  0  0
  4  5  1  0  0  0  0
  4 26  1  0  0  0  0
  5  6  1  0  0  0  0
  5 27  1  0  0  0  0
  5 28  1  0  0  0  0
  6  7  1  0  0  0  0
  6 29  1  0  0  0  0
  6 30  1  0  0  0  0
  7  8  1  0  0  0  0
  7 31  1  0  0  0  0
  7 32  1  0  0  0  0
  8  9  1  0  0  0  0
  9 10  1  0  0  0  0
  9 33  1  0  0  0  0
  9 34  1  0  0  0  0
 10 11  1  0  0  0  0
 10 35  1  0  0  0  0
 10 36  1  0  0  0  0
 11 12  1  0  0  0  0
 12 13  1  0  0  0  0
 12 37  1  0  0  0  0
 12 38  1  0  0  0  0
 13 14  1  0  0  0  0
 13 39  1  0  0  0  0
 13 40  1  0  0  0  0
 14 15  1  0  0  0  0
 15 16  1  0  0  0  0
 15 41  1  0  0  0  0
 15 42  1  0  0  0  0
 16 17  1  0  0  0  0
 16 43  1  0  0  0  0
 16 44  1  0  0  0  0
 17 18  1  0  0  0  0
 17 45  1  0  0  0  0
 18 19  2  0  0  0  0
 18 20  1  0  0  0  0
 20 21  1  0  0  0  0
 20 46  1  0  0  0  0
 20 47  1  0  0  0  0
 21 22  1  0  0  0  0
M  END
