2vti_9.pdb
  MOE2019           3D

 24 23  0  0  0  0  0  0  0  0999 V2000
  -10.0200    3.6520    0.0000 O   0  0  0  0  0  0  0  0  0  0  0  0
   -9.7510    4.1420   -0.7800 H   0  0  0  0  0  0  0  0  0  0  0  0
   -9.2700    2.3520    0.0000 C   0  0  0  0  0  0  0  0  0  0  0  0
   -7.7700    2.3520    0.0000 C   0  0  0  0  0  0  0  0  0  0  0  0
   -7.0200    1.0530    0.0000 O   0  0  0  0  0  0  0  0  0  0  0  0
   -5.5200    1.0530    0.0000 C   0  0  0  0  0  0  0  0  0  0  0  0
   -4.7700    2.3520    0.0000 C   0  0  0  0  0  0  0  0  0  0  0  0
   -3.2700    2.3520    0.0000 N   0  0  0  0  0  0  0  0  0  0  0  0
   -2.5200    3.6520    0.0000 C   0  0  0  0  0  0  0  0  0  0  0  0
   -3.2700    4.9510    0.0000 O   0  0  0  0  0  0  0  0  0  0  0  0
   -1.0200    3.6520    0.0000 C   0  0  0  0  0  0  0  0  0  0  0  0
   -0.2700    4.9510    0.0000 O   0  0  0  0  0  0  0  0  0  0  0  0
   -0.5390    5.4410   -0.7800 H   0  0  0  0  0  0  0  0  0  0  0  0
   -9.5850    1.8070   -0.8900 H   0  0  0  0  0  0  0  0  0  0  0  0
   -9.5850    1.8070    0.8900 H   0  0  0  0  0  0  0  0  0  0  0  0
   -7.4550    2.8970    0.8900 H   0  0  0  0  0  0  0  0  0  0  0  0
   -7.4550    2.8970   -0.8900 H   0  0  0  0  0  0  0  0  0  0  0  0
   -5.2050    0.5080   -0.8900 H   0  0  0  0  0  0  0  0  0  0  0  0
   -5.2050    0.5080    0.8900 H   0  0  0  0  0  0  0  0  0  0  0  0
   -5.0850    2.8970    0.8900 H   0  0  0  0  0  0  0  0  0  0  0  0
   -5.0850    2.8970   -0.8900 H   0  0  0  0  0  0  0  0  0  0  0  0
   -2.7650    1.4770    0.0000 H   0  0  0  0  0  0  0  0  0  0  0  0
   -0.7050    3.1070   -0.8900 H   0  0  0  0  0  0  0  0  0  0  0  0
   -0.7050    3.1070    0.8900 H   0  0  0  0  0  0  0  0  0  0  0  0
  1  2  1  0  0  0  0
  1  3  1  0  0  0  0
  3  4  1  0  0  0  0
  3 14  1  0  0  0  0
  3 15  1  0  0  0  0
  4  5  1  0  0  0  0
  4 16  1  0  0  0  0
  4 17  1  0  0  0  0
  5  6  1  0  0  0  0
  6  7  1  0  0  0  0
  6 18  1  0  0  0  0
  6 19  1  0  0  0  0
  7  8  1  0  0  0  0
  7 20  1  0  0  0  0
  7 21  1  0  0  0  0
  8  9  1  0  0  0  0
  8 22  1  0  0  0  0
  9 10  2  0  0  0  0
  9 11  1  0  0  0  0
 11 12  1  0  0  0  0
 11 23  1  0  0  0  0
 11 24  1  0  0  0  0
 12 13  1  0  0  0  0
M  END
