2vti_8.pdb
  MOE2019           3D

 35 34  0  0  0  0  0  0  0  0999 V2000
   13.2340    0.6290    0.0000 C   0  0  0  0  0  0  0  0  0  0  0  0
   13.9840    1.9280    0.0000 C   0  0  0  0  0  0  0  0  0  0  0  0
   13.2340    3.2270    0.0000 O   0  0  0  0  0  0  0  0  0  0  0  0
   15.4840    1.9280    0.0000 N   0  0  0  0  0  0  0  0  0  0  0  0
   16.2340    3.2270    0.0000 C   0  0  0  0  0  0  0  0  0  0  0  0
   17.7340    3.2270    0.0000 C   0  0  0  0  0  0  0  0  0  0  0  0
   18.4840    4.5260    0.0000 C   0  0  0  0  0  0  0  0  0  0  0  0
   19.9840    4.5260    0.0000 C   0  0  0  0  0  0  0  0  0  0  0  0
   20.7340    5.8260    0.0000 C   0  0  0  0  0  0  0  0  0  0  0  0
   22.2340    5.8260    0.0000 C   0  0  0  0  0  0  0  0  0  0  0  0
   22.9840    7.1250    0.0000 N   0  0  0  0  0  0  0  0  0  0  0  0
   24.4840    7.1250    0.0000 C   0  0  0  0  0  0  0  0  0  0  0  0
   25.2340    5.8260    0.0000 O   0  0  0  0  0  0  0  0  0  0  0  0
   25.2340    8.4240    0.0000 C   0  0  0  0  0  0  0  0  0  0  0  0
   26.7340    8.4240    0.0000 O   0  0  0  0  0  0  0  0  0  0  0  0
   27.0240    7.9460    0.7800 H   0  0  0  0  0  0  0  0  0  0  0  0
   13.5490    0.0840   -0.8900 H   0  0  0  0  0  0  0  0  0  0  0  0
   12.1520    0.7630    0.0000 H   0  0  0  0  0  0  0  0  0  0  0  0
   13.5490    0.0840    0.8900 H   0  0  0  0  0  0  0  0  0  0  0  0
   15.9890    1.0530    0.0000 H   0  0  0  0  0  0  0  0  0  0  0  0
   15.9190    3.7720    0.8900 H   0  0  0  0  0  0  0  0  0  0  0  0
   15.9190    3.7720   -0.8900 H   0  0  0  0  0  0  0  0  0  0  0  0
   18.0490    2.6820   -0.8900 H   0  0  0  0  0  0  0  0  0  0  0  0
   18.0490    2.6820    0.8900 H   0  0  0  0  0  0  0  0  0  0  0  0
   18.1690    5.0710    0.8900 H   0  0  0  0  0  0  0  0  0  0  0  0
   18.1690    5.0710   -0.8900 H   0  0  0  0  0  0  0  0  0  0  0  0
   20.2990    3.9810   -0.8900 H   0  0  0  0  0  0  0  0  0  0  0  0
   20.2990    3.9810    0.8900 H   0  0  0  0  0  0  0  0  0  0  0  0
   20.4190    6.3710    0.8900 H   0  0  0  0  0  0  0  0  0  0  0  0
   20.4190    6.3710   -0.8900 H   0  0  0  0  0  0  0  0  0  0  0  0
   22.5490    5.2810   -0.8900 H   0  0  0  0  0  0  0  0  0  0  0  0
   22.5490    5.2810    0.8900 H   0  0  0  0  0  0  0  0  0  0  0  0
   22.4790    8.0000    0.0000 H   0  0  0  0  0  0  0  0  0  0  0  0
   24.9190    8.9690    0.8900 H   0  0  0  0  0  0  0  0  0  0  0  0
   24.9190    8.9690   -0.8900 H   0  0  0  0  0  0  0  0  0  0  0  0
  1  2  1  0  0  0  0
  1 17  1  0  0  0  0
  1 18  1  0  0  0  0
  1 19  1  0  0  0  0
  2  3  2  0  0  0  0
  2  4  1  0  0  0  0
  4  5  1  0  0  0  0
  4 20  1  0  0  0  0
  5  6  1  0  0  0  0
  5 21  1  0  0  0  0
  5 22  1  0  0  0  0
  6  7  1  0  0  0  0
  6 23  1  0  0  0  0
  6 24  1  0  0  0  0
  7  8  1  0  0  0  0
  7 25  1  0  0  0  0
  7 26  1  0  0  0  0
  8  9  1  0  0  0  0
  8 27  1  0  0  0  0
  8 28  1  0  0  0  0
  9 10  1  0  0  0  0
  9 29  1  0  0  0  0
  9 30  1  0  0  0  0
 10 11  1  0  0  0  0
 10 31  1  0  0  0  0
 10 32  1  0  0  0  0
 11 12  1  0  0  0  0
 11 33  1  0  0  0  0
 12 13  2  0  0  0  0
 12 14  1  0  0  0  0
 14 15  1  0  0  0  0
 14 34  1  0  0  0  0
 14 35  1  0  0  0  0
 15 16  1  0  0  0  0
M  END
