2xb7_1.pdb
  MOE2019           3D

 29 28  0  0  0  0  0  0  0  0999 V2000
   12.2710    5.2830    0.0000 C   0  0  0  0  0  0  0  0  0  0  0  0
   13.5700    6.0330    0.0000 C   0  0  0  0  0  0  0  0  0  0  0  0
   14.8690    5.2830    0.0000 O   0  0  0  0  0  0  0  0  0  0  0  0
   16.1680    6.0330    0.0000 C   0  0  0  0  0  0  0  0  0  0  0  0
   17.4670    5.2830    0.0000 C   0  0  0  0  0  0  0  0  0  0  0  0
   18.7660    6.0330    0.0000 O   0  0  0  0  0  0  0  0  0  0  0  0
   20.0650    5.2830    0.0000 C   0  0  0  0  0  0  0  0  0  0  0  0
   21.3640    6.0330    0.0000 C   0  0  0  0  0  0  0  0  0  0  0  0
   22.6630    5.2830    0.0000 N   0  0  0  0  0  0  0  0  0  0  0  0
   22.6630    3.7830    0.0000 C   0  0  0  0  0  0  0  0  0  0  0  0
   21.3640    3.0330    0.0000 O   0  0  0  0  0  0  0  0  0  0  0  0
   23.9620    3.0330    0.0000 C   0  0  0  0  0  0  0  0  0  0  0  0
   12.2710    4.6540   -0.8900 H   0  0  0  0  0  0  0  0  0  0  0  0
   12.2710    4.6540    0.8900 H   0  0  0  0  0  0  0  0  0  0  0  0
   11.4010    5.9400    0.0000 H   0  0  0  0  0  0  0  0  0  0  0  0
   13.5700    6.6620    0.8900 H   0  0  0  0  0  0  0  0  0  0  0  0
   13.5700    6.6620   -0.8900 H   0  0  0  0  0  0  0  0  0  0  0  0
   16.1680    6.6620    0.8900 H   0  0  0  0  0  0  0  0  0  0  0  0
   16.1680    6.6620   -0.8900 H   0  0  0  0  0  0  0  0  0  0  0  0
   17.4670    4.6540   -0.8900 H   0  0  0  0  0  0  0  0  0  0  0  0
   17.4670    4.6540    0.8900 H   0  0  0  0  0  0  0  0  0  0  0  0
   20.0650    4.6540   -0.8900 H   0  0  0  0  0  0  0  0  0  0  0  0
   20.0650    4.6540    0.8900 H   0  0  0  0  0  0  0  0  0  0  0  0
   21.3640    6.6620    0.8900 H   0  0  0  0  0  0  0  0  0  0  0  0
   21.3640    6.6620   -0.8900 H   0  0  0  0  0  0  0  0  0  0  0  0
   23.5380    5.7880    0.0000 H   0  0  0  0  0  0  0  0  0  0  0  0
   23.9620    2.4040   -0.8900 H   0  0  0  0  0  0  0  0  0  0  0  0
   24.8320    3.6900    0.0000 H   0  0  0  0  0  0  0  0  0  0  0  0
   23.9620    2.4040    0.8900 H   0  0  0  0  0  0  0  0  0  0  0  0
  1  2  1  0  0  0  0
  1 13  1  0  0  0  0
  1 14  1  0  0  0  0
  1 15  1  0  0  0  0
  2  3  1  0  0  0  0
  2 16  1  0  0  0  0
  2 17  1  0  0  0  0
  3  4  1  0  0  0  0
  4  5  1  0  0  0  0
  4 18  1  0  0  0  0
  4 19  1  0  0  0  0
  5  6  1  0  0  0  0
  5 20  1  0  0  0  0
  5 21  1  0  0  0  0
  6  7  1  0  0  0  0
  7  8  1  0  0  0  0
  7 22  1  0  0  0  0
  7 23  1  0  0  0  0
  8  9  1  0  0  0  0
  8 24  1  0  0  0  0
  8 25  1  0  0  0  0
  9 10  1  0  0  0  0
  9 26  1  0  0  0  0
 10 11  2  0  0  0  0
 10 12  1  0  0  0  0
 12 27  1  0  0  0  0
 12 28  1  0  0  0  0
 12 29  1  0  0  0  0
M  END
