3cbs_3.pdb
  MOE2019           3D

 30 29  0  0  0  0  0  0  0  0999 V2000
   -6.3380  -10.4360    0.0000 C   0  0  0  0  0  0  0  0  0  0  0  0
   -5.0390  -11.1860    0.0000 C   0  0  0  0  0  0  0  0  0  0  0  0
   -3.7400  -10.4360    0.0000 O   0  0  0  0  0  0  0  0  0  0  0  0
   -2.4410  -11.1860    0.0000 C   0  0  0  0  0  0  0  0  0  0  0  0
   -1.1420  -10.4360    0.0000 C   0  0  0  0  0  0  0  0  0  0  0  0
    0.1570  -11.1860    0.0000 O   0  0  0  0  0  0  0  0  0  0  0  0
    1.4560  -10.4360    0.0000 C   0  0  0  0  0  0  0  0  0  0  0  0
    2.7550  -11.1860    0.0000 C   0  0  0  0  0  0  0  0  0  0  0  0
    4.0540  -10.4360    0.0000 N   0  0  0  0  0  0  0  0  0  0  0  0
    5.3530  -11.1860    0.0000 C   0  0  0  0  0  0  0  0  0  0  0  0
    5.3530  -12.6860    0.0000 O   0  0  0  0  0  0  0  0  0  0  0  0
    6.6520  -10.4360    0.0000 C   0  0  0  0  0  0  0  0  0  0  0  0
    7.9510  -11.1860    0.0000 O   0  0  0  0  0  0  0  0  0  0  0  0
    8.6600  -10.5390    0.0000 H   0  0  0  0  0  0  0  0  0  0  0  0
   -6.3380   -9.8070   -0.8900 H   0  0  0  0  0  0  0  0  0  0  0  0
   -6.3380   -9.8070    0.8900 H   0  0  0  0  0  0  0  0  0  0  0  0
   -7.2080  -11.0930    0.0000 H   0  0  0  0  0  0  0  0  0  0  0  0
   -5.0390  -11.8150   -0.8900 H   0  0  0  0  0  0  0  0  0  0  0  0
   -5.0390  -11.8150    0.8900 H   0  0  0  0  0  0  0  0  0  0  0  0
   -2.4410  -11.8150    0.8900 H   0  0  0  0  0  0  0  0  0  0  0  0
   -2.4410  -11.8150   -0.8900 H   0  0  0  0  0  0  0  0  0  0  0  0
   -1.1420   -9.8070    0.8900 H   0  0  0  0  0  0  0  0  0  0  0  0
   -1.1420   -9.8070   -0.8900 H   0  0  0  0  0  0  0  0  0  0  0  0
    1.4560   -9.8070   -0.8900 H   0  0  0  0  0  0  0  0  0  0  0  0
    1.4560   -9.8070    0.8900 H   0  0  0  0  0  0  0  0  0  0  0  0
    2.7550  -11.8150   -0.8900 H   0  0  0  0  0  0  0  0  0  0  0  0
    2.7550  -11.8150    0.8900 H   0  0  0  0  0  0  0  0  0  0  0  0
    4.0540   -9.4260    0.0000 H   0  0  0  0  0  0  0  0  0  0  0  0
    6.6520   -9.8070    0.8900 H   0  0  0  0  0  0  0  0  0  0  0  0
    6.6520   -9.8070   -0.8900 H   0  0  0  0  0  0  0  0  0  0  0  0
  1  2  1  0  0  0  0
  1 15  1  0  0  0  0
  1 16  1  0  0  0  0
  1 17  1  0  0  0  0
  2  3  1  0  0  0  0
  2 18  1  0  0  0  0
  2 19  1  0  0  0  0
  3  4  1  0  0  0  0
  4  5  1  0  0  0  0
  4 20  1  0  0  0  0
  4 21  1  0  0  0  0
  5  6  1  0  0  0  0
  5 22  1  0  0  0  0
  5 23  1  0  0  0  0
  6  7  1  0  0  0  0
  7  8  1  0  0  0  0
  7 24  1  0  0  0  0
  7 25  1  0  0  0  0
  8  9  1  0  0  0  0
  8 26  1  0  0  0  0
  8 27  1  0  0  0  0
  9 10  1  0  0  0  0
  9 28  1  0  0  0  0
 10 11  2  0  0  0  0
 10 12  1  0  0  0  0
 12 13  1  0  0  0  0
 12 29  1  0  0  0  0
 12 30  1  0  0  0  0
 13 14  1  0  0  0  0
M  END
