3hll_12.pdb
  MOE2019           3D

 48 48  0  0  0  0  0  0  0  0999 V2000
   11.9910   -8.0150    0.0000 C   0  0  0  0  0  0  0  0  0  0  0  0
   13.2570   -8.8210    0.0000 C   0  0  0  0  0  0  0  0  0  0  0  0
   14.5870   -8.1280    0.0000 C   0  0  0  0  0  0  0  0  0  0  0  0
   15.8520   -8.9330    0.0000 C   0  0  0  0  0  0  0  0  0  0  0  0
   17.1820   -8.2400    0.0000 C   0  0  0  0  0  0  0  0  0  0  0  0
   18.5250   -8.9090    0.0000 N   0  0  0  0  0  0  0  0  0  0  0  0
   19.5760   -7.8380    0.0000 N   0  0  0  0  0  0  0  0  0  0  0  0
   18.8830   -6.5080    0.0000 N   0  0  0  0  0  0  0  0  0  0  0  0
   19.5520   -5.1650    0.0000 C   0  0  0  0  0  0  0  0  0  0  0  0
   21.0490   -5.0730    0.0000 C   0  0  0  0  0  0  0  0  0  0  0  0
   21.7180   -3.7310    0.0000 C   0  0  0  0  0  0  0  0  0  0  0  0
   23.2150   -3.6380    0.0000 C   0  0  0  0  0  0  0  0  0  0  0  0
   24.0430   -4.8890    0.0000 O   0  0  0  0  0  0  0  0  0  0  0  0
   23.8830   -2.2960    0.0000 N   0  0  0  0  0  0  0  0  0  0  0  0
   25.3810   -2.2040    0.0000 C   0  0  0  0  0  0  0  0  0  0  0  0
   26.0490   -0.8610    0.0000 C   0  0  0  0  0  0  0  0  0  0  0  0
   27.5470   -0.7690    0.0000 C   0  0  0  0  0  0  0  0  0  0  0  0
   28.2150    0.5740    0.0000 C   0  0  0  0  0  0  0  0  0  0  0  0
   29.7120    0.6660    0.0000 C   0  0  0  0  0  0  0  0  0  0  0  0
   17.4040   -6.7560    0.0000 C   0  0  0  0  0  0  0  0  0  0  0  0
   12.0180   -7.3860    0.8900 H   0  0  0  0  0  0  0  0  0  0  0  0
   11.0940   -8.6340    0.0000 H   0  0  0  0  0  0  0  0  0  0  0  0
   12.0180   -7.3860   -0.8900 H   0  0  0  0  0  0  0  0  0  0  0  0
   13.2300   -9.4500   -0.8900 H   0  0  0  0  0  0  0  0  0  0  0  0
   13.2300   -9.4500    0.8900 H   0  0  0  0  0  0  0  0  0  0  0  0
   14.6140   -7.4990    0.8900 H   0  0  0  0  0  0  0  0  0  0  0  0
   14.6140   -7.4990   -0.8900 H   0  0  0  0  0  0  0  0  0  0  0  0
   15.8250   -9.5620   -0.8900 H   0  0  0  0  0  0  0  0  0  0  0  0
   15.8250   -9.5620    0.8900 H   0  0  0  0  0  0  0  0  0  0  0  0
   19.2040   -4.6400    0.8900 H   0  0  0  0  0  0  0  0  0  0  0  0
   19.2040   -4.6400   -0.8900 H   0  0  0  0  0  0  0  0  0  0  0  0
   21.3960   -5.5980   -0.8900 H   0  0  0  0  0  0  0  0  0  0  0  0
   21.3960   -5.5980    0.8900 H   0  0  0  0  0  0  0  0  0  0  0  0
   21.3700   -3.2060    0.8900 H   0  0  0  0  0  0  0  0  0  0  0  0
   21.3700   -3.2060   -0.8900 H   0  0  0  0  0  0  0  0  0  0  0  0
   23.3250   -1.4540    0.0000 H   0  0  0  0  0  0  0  0  0  0  0  0
   25.7290   -2.7290   -0.8900 H   0  0  0  0  0  0  0  0  0  0  0  0
   25.7290   -2.7290    0.8900 H   0  0  0  0  0  0  0  0  0  0  0  0
   25.7010   -0.3360    0.8900 H   0  0  0  0  0  0  0  0  0  0  0  0
   25.7010   -0.3360   -0.8900 H   0  0  0  0  0  0  0  0  0  0  0  0
   27.8950   -1.2940   -0.8900 H   0  0  0  0  0  0  0  0  0  0  0  0
   27.8950   -1.2940    0.8900 H   0  0  0  0  0  0  0  0  0  0  0  0
   27.8670    1.0990    0.8900 H   0  0  0  0  0  0  0  0  0  0  0  0
   27.8670    1.0990   -0.8900 H   0  0  0  0  0  0  0  0  0  0  0  0
   30.0600    0.1410   -0.8900 H   0  0  0  0  0  0  0  0  0  0  0  0
   30.0730    1.6940    0.0000 H   0  0  0  0  0  0  0  0  0  0  0  0
   30.0600    0.1410    0.8900 H   0  0  0  0  0  0  0  0  0  0  0  0
   16.6340   -5.9990    0.0000 H   0  0  0  0  0  0  0  0  0  0  0  0
  1  2  1  0  0  0  0
  1 21  1  0  0  0  0
  1 22  1  0  0  0  0
  1 23  1  0  0  0  0
  2  3  1  0  0  0  0
  2 24  1  0  0  0  0
  2 25  1  0  0  0  0
  3  4  1  0  0  0  0
  3 26  1  0  0  0  0
  3 27  1  0  0  0  0
  4  5  1  0  0  0  0
  4 28  1  0  0  0  0
  4 29  1  0  0  0  0
  5  6  1  0  0  0  0
  5 20  2  0  0  0  0
  6  7  2  0  0  0  0
  7  8  1  0  0  0  0
  8  9  1  0  0  0  0
  8 20  1  0  0  0  0
  9 10  1  0  0  0  0
  9 30  1  0  0  0  0
  9 31  1  0  0  0  0
 10 11  1  0  0  0  0
 10 32  1  0  0  0  0
 10 33  1  0  0  0  0
 11 12  1  0  0  0  0
 11 34  1  0  0  0  0
 11 35  1  0  0  0  0
 12 13  2  0  0  0  0
 12 14  1  0  0  0  0
 14 15  1  0  0  0  0
 14 36  1  0  0  0  0
 15 16  1  0  0  0  0
 15 37  1  0  0  0  0
 15 38  1  0  0  0  0
 16 17  1  0  0  0  0
 16 39  1  0  0  0  0
 16 40  1  0  0  0  0
 17 18  1  0  0  0  0
 17 41  1  0  0  0  0
 17 42  1  0  0  0  0
 18 19  1  0  0  0  0
 18 43  1  0  0  0  0
 18 44  1  0  0  0  0
 19 45  1  0  0  0  0
 19 46  1  0  0  0  0
 19 47  1  0  0  0  0
 20 48  1  0  0  0  0
M  END
