3hll_11.pdb
  MOE2019           3D

 51 51  0  0  0  0  0  0  0  0999 V2000
   -2.5730  -15.7020    0.0000 C   0  0  0  0  0  0  0  0  0  0  0  0
   -1.2420  -16.3940    0.0000 C   0  0  0  0  0  0  0  0  0  0  0  0
    0.0230  -15.5870    0.0000 C   0  0  0  0  0  0  0  0  0  0  0  0
    1.3540  -16.2790    0.0000 C   0  0  0  0  0  0  0  0  0  0  0  0
    2.6190  -15.4720    0.0000 C   0  0  0  0  0  0  0  0  0  0  0  0
    2.7090  -13.9750    0.0000 N   0  0  0  0  0  0  0  0  0  0  0  0
    4.1610  -13.5980    0.0000 N   0  0  0  0  0  0  0  0  0  0  0  0
    4.9680  -14.8630    0.0000 N   0  0  0  0  0  0  0  0  0  0  0  0
    6.4650  -14.9540    0.0000 C   0  0  0  0  0  0  0  0  0  0  0  0
    7.1350  -16.2960    0.0000 C   0  0  0  0  0  0  0  0  0  0  0  0
    8.6330  -16.3860    0.0000 C   0  0  0  0  0  0  0  0  0  0  0  0
    9.3030  -17.7280    0.0000 C   0  0  0  0  0  0  0  0  0  0  0  0
    8.4760  -18.9800    0.0000 O   0  0  0  0  0  0  0  0  0  0  0  0
   10.8000  -17.8190    0.0000 N   0  0  0  0  0  0  0  0  0  0  0  0
   11.6270  -16.5680    0.0000 C   0  0  0  0  0  0  0  0  0  0  0  0
   13.1240  -16.6580    0.0000 C   0  0  0  0  0  0  0  0  0  0  0  0
   13.9510  -15.4070    0.0000 C   0  0  0  0  0  0  0  0  0  0  0  0
   15.4490  -15.4970    0.0000 C   0  0  0  0  0  0  0  0  0  0  0  0
   16.2760  -14.2460    0.0000 C   0  0  0  0  0  0  0  0  0  0  0  0
   17.7730  -14.3370    0.0000 C   0  0  0  0  0  0  0  0  0  0  0  0
    4.0140  -16.0210    0.0000 C   0  0  0  0  0  0  0  0  0  0  0  0
   -2.6010  -15.0730    0.8900 H   0  0  0  0  0  0  0  0  0  0  0  0
   -3.4120  -16.3970    0.0000 H   0  0  0  0  0  0  0  0  0  0  0  0
   -2.6010  -15.0730   -0.8900 H   0  0  0  0  0  0  0  0  0  0  0  0
   -1.2140  -17.0230   -0.8900 H   0  0  0  0  0  0  0  0  0  0  0  0
   -1.2140  -17.0230    0.8900 H   0  0  0  0  0  0  0  0  0  0  0  0
   -0.0050  -14.9580    0.8900 H   0  0  0  0  0  0  0  0  0  0  0  0
   -0.0050  -14.9580   -0.8900 H   0  0  0  0  0  0  0  0  0  0  0  0
    1.3820  -16.9080   -0.8900 H   0  0  0  0  0  0  0  0  0  0  0  0
    1.3820  -16.9080    0.8900 H   0  0  0  0  0  0  0  0  0  0  0  0
    6.8120  -14.4290    0.8900 H   0  0  0  0  0  0  0  0  0  0  0  0
    6.8120  -14.4290   -0.8900 H   0  0  0  0  0  0  0  0  0  0  0  0
    6.7880  -16.8210   -0.8900 H   0  0  0  0  0  0  0  0  0  0  0  0
    6.7880  -16.8210    0.8900 H   0  0  0  0  0  0  0  0  0  0  0  0
    8.9800  -15.8610    0.8900 H   0  0  0  0  0  0  0  0  0  0  0  0
    8.9800  -15.8610   -0.8900 H   0  0  0  0  0  0  0  0  0  0  0  0
   11.2510  -18.7230    0.0000 H   0  0  0  0  0  0  0  0  0  0  0  0
   11.3460  -16.0050    0.8900 H   0  0  0  0  0  0  0  0  0  0  0  0
   11.3460  -16.0050   -0.8900 H   0  0  0  0  0  0  0  0  0  0  0  0
   13.4050  -17.2210   -0.8900 H   0  0  0  0  0  0  0  0  0  0  0  0
   13.4050  -17.2210    0.8900 H   0  0  0  0  0  0  0  0  0  0  0  0
   13.6700  -14.8440    0.8900 H   0  0  0  0  0  0  0  0  0  0  0  0
   13.6700  -14.8440   -0.8900 H   0  0  0  0  0  0  0  0  0  0  0  0
   15.7300  -16.0600   -0.8900 H   0  0  0  0  0  0  0  0  0  0  0  0
   15.7300  -16.0600    0.8900 H   0  0  0  0  0  0  0  0  0  0  0  0
   15.9950  -13.6830    0.8900 H   0  0  0  0  0  0  0  0  0  0  0  0
   15.9950  -13.6830   -0.8900 H   0  0  0  0  0  0  0  0  0  0  0  0
   18.0540  -14.9000   -0.8900 H   0  0  0  0  0  0  0  0  0  0  0  0
   18.2580  -13.3610    0.0000 H   0  0  0  0  0  0  0  0  0  0  0  0
   18.0540  -14.9000    0.8900 H   0  0  0  0  0  0  0  0  0  0  0  0
    4.2850  -17.0670    0.0000 H   0  0  0  0  0  0  0  0  0  0  0  0
  1  2  1  0  0  0  0
  1 22  1  0  0  0  0
  1 23  1  0  0  0  0
  1 24  1  0  0  0  0
  2  3  1  0  0  0  0
  2 25  1  0  0  0  0
  2 26  1  0  0  0  0
  3  4  1  0  0  0  0
  3 27  1  0  0  0  0
  3 28  1  0  0  0  0
  4  5  1  0  0  0  0
  4 29  1  0  0  0  0
  4 30  1  0  0  0  0
  5  6  1  0  0  0  0
  5 21  2  0  0  0  0
  6  7  2  0  0  0  0
  7  8  1  0  0  0  0
  8  9  1  0  0  0  0
  8 21  1  0  0  0  0
  9 10  1  0  0  0  0
  9 31  1  0  0  0  0
  9 32  1  0  0  0  0
 10 11  1  0  0  0  0
 10 33  1  0  0  0  0
 10 34  1  0  0  0  0
 11 12  1  0  0  0  0
 11 35  1  0  0  0  0
 11 36  1  0  0  0  0
 12 13  2  0  0  0  0
 12 14  1  0  0  0  0
 14 15  1  0  0  0  0
 14 37  1  0  0  0  0
 15 16  1  0  0  0  0
 15 38  1  0  0  0  0
 15 39  1  0  0  0  0
 16 17  1  0  0  0  0
 16 40  1  0  0  0  0
 16 41  1  0  0  0  0
 17 18  1  0  0  0  0
 17 42  1  0  0  0  0
 17 43  1  0  0  0  0
 18 19  1  0  0  0  0
 18 44  1  0  0  0  0
 18 45  1  0  0  0  0
 19 20  1  0  0  0  0
 19 46  1  0  0  0  0
 19 47  1  0  0  0  0
 20 48  1  0  0  0  0
 20 49  1  0  0  0  0
 20 50  1  0  0  0  0
 21 51  1  0  0  0  0
M  END
