3hll_7.pdb
  MOE2019           3D

 54 54  0  0  0  0  0  0  0  0999 V2000
   -0.8580  -17.5280    0.0000 C   0  0  0  0  0  0  0  0  0  0  0  0
    0.6400  -17.4580    0.0000 C   0  0  0  0  0  0  0  0  0  0  0  0
    1.3280  -16.1250    0.0000 C   0  0  0  0  0  0  0  0  0  0  0  0
    2.8260  -16.0540    0.0000 C   0  0  0  0  0  0  0  0  0  0  0  0
    3.5140  -14.7210    0.0000 C   0  0  0  0  0  0  0  0  0  0  0  0
    2.8400  -13.3810    0.0000 N   0  0  0  0  0  0  0  0  0  0  0  0
    3.9060  -12.3260    0.0000 N   0  0  0  0  0  0  0  0  0  0  0  0
    5.2390  -13.0140    0.0000 N   0  0  0  0  0  0  0  0  0  0  0  0
    6.5790  -12.3400    0.0000 C   0  0  0  0  0  0  0  0  0  0  0  0
    7.8330  -13.1630    0.0000 C   0  0  0  0  0  0  0  0  0  0  0  0
    9.1730  -12.4890    0.0000 O   0  0  0  0  0  0  0  0  0  0  0  0
   10.4270  -13.3130    0.0000 C   0  0  0  0  0  0  0  0  0  0  0  0
   11.7670  -12.6390    0.0000 C   0  0  0  0  0  0  0  0  0  0  0  0
   13.0210  -13.4620    0.0000 O   0  0  0  0  0  0  0  0  0  0  0  0
   14.3610  -12.7880    0.0000 C   0  0  0  0  0  0  0  0  0  0  0  0
   15.6140  -13.6110    0.0000 C   0  0  0  0  0  0  0  0  0  0  0  0
   16.9540  -12.9370    0.0000 O   0  0  0  0  0  0  0  0  0  0  0  0
   18.2080  -13.7610    0.0000 C   0  0  0  0  0  0  0  0  0  0  0  0
   19.5480  -13.0870    0.0000 C   0  0  0  0  0  0  0  0  0  0  0  0
   20.8020  -13.9100    0.0000 O   0  0  0  0  0  0  0  0  0  0  0  0
   22.1420  -13.2360    0.0000 C   0  0  0  0  0  0  0  0  0  0  0  0
   23.3960  -14.0600    0.0000 C   0  0  0  0  0  0  0  0  0  0  0  0
    4.9970  -14.4940    0.0000 C   0  0  0  0  0  0  0  0  0  0  0  0
   -1.1980  -16.9980    0.8900 H   0  0  0  0  0  0  0  0  0  0  0  0
   -1.2350  -18.5510    0.0000 H   0  0  0  0  0  0  0  0  0  0  0  0
   -1.1980  -16.9980   -0.8900 H   0  0  0  0  0  0  0  0  0  0  0  0
    0.9800  -17.9880   -0.8900 H   0  0  0  0  0  0  0  0  0  0  0  0
    0.9800  -17.9880    0.8900 H   0  0  0  0  0  0  0  0  0  0  0  0
    0.9880  -15.5950    0.8900 H   0  0  0  0  0  0  0  0  0  0  0  0
    0.9880  -15.5950   -0.8900 H   0  0  0  0  0  0  0  0  0  0  0  0
    3.1660  -16.5840   -0.8900 H   0  0  0  0  0  0  0  0  0  0  0  0
    3.1660  -16.5840    0.8900 H   0  0  0  0  0  0  0  0  0  0  0  0
    6.6150  -11.7120    0.8900 H   0  0  0  0  0  0  0  0  0  0  0  0
    6.6150  -11.7120   -0.8900 H   0  0  0  0  0  0  0  0  0  0  0  0
    7.7970  -13.7910   -0.8900 H   0  0  0  0  0  0  0  0  0  0  0  0
    7.7970  -13.7910    0.8900 H   0  0  0  0  0  0  0  0  0  0  0  0
   10.3910  -13.9410   -0.8900 H   0  0  0  0  0  0  0  0  0  0  0  0
   10.3910  -13.9410    0.8900 H   0  0  0  0  0  0  0  0  0  0  0  0
   11.8030  -12.0110    0.8900 H   0  0  0  0  0  0  0  0  0  0  0  0
   11.8030  -12.0110   -0.8900 H   0  0  0  0  0  0  0  0  0  0  0  0
   14.3970  -12.1600    0.8900 H   0  0  0  0  0  0  0  0  0  0  0  0
   14.3970  -12.1600   -0.8900 H   0  0  0  0  0  0  0  0  0  0  0  0
   15.5780  -14.2390   -0.8900 H   0  0  0  0  0  0  0  0  0  0  0  0
   15.5780  -14.2390    0.8900 H   0  0  0  0  0  0  0  0  0  0  0  0
   18.1720  -14.3890   -0.8900 H   0  0  0  0  0  0  0  0  0  0  0  0
   18.1720  -14.3890    0.8900 H   0  0  0  0  0  0  0  0  0  0  0  0
   19.5840  -12.4590    0.8900 H   0  0  0  0  0  0  0  0  0  0  0  0
   19.5840  -12.4590   -0.8900 H   0  0  0  0  0  0  0  0  0  0  0  0
   22.1780  -12.6080    0.8900 H   0  0  0  0  0  0  0  0  0  0  0  0
   22.1780  -12.6080   -0.8900 H   0  0  0  0  0  0  0  0  0  0  0  0
   23.3600  -14.6880   -0.8900 H   0  0  0  0  0  0  0  0  0  0  0  0
   24.3020  -13.4540    0.0000 H   0  0  0  0  0  0  0  0  0  0  0  0
   23.3600  -14.6880    0.8900 H   0  0  0  0  0  0  0  0  0  0  0  0
    5.7570  -15.2620    0.0000 H   0  0  0  0  0  0  0  0  0  0  0  0
  1  2  1  0  0  0  0
  1 24  1  0  0  0  0
  1 25  1  0  0  0  0
  1 26  1  0  0  0  0
  2  3  1  0  0  0  0
  2 27  1  0  0  0  0
  2 28  1  0  0  0  0
  3  4  1  0  0  0  0
  3 29  1  0  0  0  0
  3 30  1  0  0  0  0
  4  5  1  0  0  0  0
  4 31  1  0  0  0  0
  4 32  1  0  0  0  0
  5  6  1  0  0  0  0
  5 23  2  0  0  0  0
  6  7  2  0  0  0  0
  7  8  1  0  0  0  0
  8  9  1  0  0  0  0
  8 23  1  0  0  0  0
  9 10  1  0  0  0  0
  9 33  1  0  0  0  0
  9 34  1  0  0  0  0
 10 11  1  0  0  0  0
 10 35  1  0  0  0  0
 10 36  1  0  0  0  0
 11 12  1  0  0  0  0
 12 13  1  0  0  0  0
 12 37  1  0  0  0  0
 12 38  1  0  0  0  0
 13 14  1  0  0  0  0
 13 39  1  0  0  0  0
 13 40  1  0  0  0  0
 14 15  1  0  0  0  0
 15 16  1  0  0  0  0
 15 41  1  0  0  0  0
 15 42  1  0  0  0  0
 16 17  1  0  0  0  0
 16 43  1  0  0  0  0
 16 44  1  0  0  0  0
 17 18  1  0  0  0  0
 18 19  1  0  0  0  0
 18 45  1  0  0  0  0
 18 46  1  0  0  0  0
 19 20  1  0  0  0  0
 19 47  1  0  0  0  0
 19 48  1  0  0  0  0
 20 21  1  0  0  0  0
 21 22  1  0  0  0  0
 21 49  1  0  0  0  0
 21 50  1  0  0  0  0
 22 51  1  0  0  0  0
 22 52  1  0  0  0  0
 22 53  1  0  0  0  0
 23 54  1  0  0  0  0
M  END
