3hll_4.pdb
  MOE2019           3D

 22 21  0  0  0  0  0  0  0  0999 V2000
    0.9600   11.8830    0.0000 C   0  0  0  0  0  0  0  0  0  0  0  0
    2.2590   12.6330    0.0000 C   0  0  0  0  0  0  0  0  0  0  0  0
    3.5580   11.8830    0.0000 O   0  0  0  0  0  0  0  0  0  0  0  0
    4.8570   12.6330    0.0000 C   0  0  0  0  0  0  0  0  0  0  0  0
    6.1570   11.8830    0.0000 C   0  0  0  0  0  0  0  0  0  0  0  0
    6.1570   10.3830    0.0000 O   0  0  0  0  0  0  0  0  0  0  0  0
    7.4560    9.6330    0.0000 C   0  0  0  0  0  0  0  0  0  0  0  0
    7.4560    8.1330    0.0000 C   0  0  0  0  0  0  0  0  0  0  0  0
    0.9600   11.2540   -0.8900 H   0  0  0  0  0  0  0  0  0  0  0  0
    0.0900   12.5400    0.0000 H   0  0  0  0  0  0  0  0  0  0  0  0
    0.9600   11.2540    0.8900 H   0  0  0  0  0  0  0  0  0  0  0  0
    2.2590   13.2620    0.8900 H   0  0  0  0  0  0  0  0  0  0  0  0
    2.2590   13.2620   -0.8900 H   0  0  0  0  0  0  0  0  0  0  0  0
    4.8570   13.2620    0.8900 H   0  0  0  0  0  0  0  0  0  0  0  0
    4.8570   13.2620   -0.8900 H   0  0  0  0  0  0  0  0  0  0  0  0
    6.7020   12.1980    0.8900 H   0  0  0  0  0  0  0  0  0  0  0  0
    6.7020   12.1980   -0.8900 H   0  0  0  0  0  0  0  0  0  0  0  0
    8.0010    9.9480    0.8900 H   0  0  0  0  0  0  0  0  0  0  0  0
    8.0010    9.9480   -0.8900 H   0  0  0  0  0  0  0  0  0  0  0  0
    6.9110    7.8180   -0.8900 H   0  0  0  0  0  0  0  0  0  0  0  0
    8.4600    7.7090    0.0000 H   0  0  0  0  0  0  0  0  0  0  0  0
    6.9110    7.8180    0.8900 H   0  0  0  0  0  0  0  0  0  0  0  0
  1  2  1  0  0  0  0
  1  9  1  0  0  0  0
  1 10  1  0  0  0  0
  1 11  1  0  0  0  0
  2  3  1  0  0  0  0
  2 12  1  0  0  0  0
  2 13  1  0  0  0  0
  3  4  1  0  0  0  0
  4  5  1  0  0  0  0
  4 14  1  0  0  0  0
  4 15  1  0  0  0  0
  5  6  1  0  0  0  0
  5 16  1  0  0  0  0
  5 17  1  0  0  0  0
  6  7  1  0  0  0  0
  7  8  1  0  0  0  0
  7 18  1  0  0  0  0
  7 19  1  0  0  0  0
  8 20  1  0  0  0  0
  8 21  1  0  0  0  0
  8 22  1  0  0  0  0
M  END
