3k5v_2.pdb
  MOE2019           3D

  9  8  0  0  0  0  0  0  0  0999 V2000
  -17.2490    1.2630    0.0000 C   0  0  0  0  0  0  0  0  0  0  0  0
  -15.9500    2.0130    0.0000 C   0  0  0  0  0  0  0  0  0  0  0  0
  -14.6510    1.2630    0.0000 O   0  0  0  0  0  0  0  0  0  0  0  0
  -13.9420    1.9100    0.0000 H   0  0  0  0  0  0  0  0  0  0  0  0
  -17.2490    0.6340    0.8900 H   0  0  0  0  0  0  0  0  0  0  0  0
  -18.1190    1.9200    0.0000 H   0  0  0  0  0  0  0  0  0  0  0  0
  -17.2490    0.6340   -0.8900 H   0  0  0  0  0  0  0  0  0  0  0  0
  -15.9500    2.6420    0.8900 H   0  0  0  0  0  0  0  0  0  0  0  0
  -15.9500    2.6420   -0.8900 H   0  0  0  0  0  0  0  0  0  0  0  0
  1  2  1  0  0  0  0
  1  5  1  0  0  0  0
  1  6  1  0  0  0  0
  1  7  1  0  0  0  0
  2  3  1  0  0  0  0
  2  8  1  0  0  0  0
  2  9  1  0  0  0  0
  3  4  1  0  0  0  0
M  END
