3k6p_7.pdb
  MOE2019           3D

 20 19  0  0  0  0  0  0  0  0999 V2000
   15.1350    0.5940    0.0000 C   0  0  0  0  0  0  0  0  0  0  0  0
   15.8850    1.8930    0.0000 C   0  0  0  0  0  0  0  0  0  0  0  0
   17.3850    1.8930    0.0000 C   0  0  0  0  0  0  0  0  0  0  0  0
   18.1350    3.1920    0.0000 C   0  0  0  0  0  0  0  0  0  0  0  0
   19.6350    3.1920    0.0000 C   0  0  0  0  0  0  0  0  0  0  0  0
   20.3850    4.4910    0.0000 C   0  0  0  0  0  0  0  0  0  0  0  0
   15.4500    0.0490    0.8900 H   0  0  0  0  0  0  0  0  0  0  0  0
   15.4500    0.0490   -0.8900 H   0  0  0  0  0  0  0  0  0  0  0  0
   14.0530    0.7280    0.0000 H   0  0  0  0  0  0  0  0  0  0  0  0
   15.5700    2.4380   -0.8900 H   0  0  0  0  0  0  0  0  0  0  0  0
   15.5700    2.4380    0.8900 H   0  0  0  0  0  0  0  0  0  0  0  0
   17.7000    1.3480    0.8900 H   0  0  0  0  0  0  0  0  0  0  0  0
   17.7000    1.3480   -0.8900 H   0  0  0  0  0  0  0  0  0  0  0  0
   17.8200    3.7370    0.8900 H   0  0  0  0  0  0  0  0  0  0  0  0
   17.8200    3.7370   -0.8900 H   0  0  0  0  0  0  0  0  0  0  0  0
   19.9500    2.6470   -0.8900 H   0  0  0  0  0  0  0  0  0  0  0  0
   19.9500    2.6470    0.8900 H   0  0  0  0  0  0  0  0  0  0  0  0
   20.0700    5.0360    0.8900 H   0  0  0  0  0  0  0  0  0  0  0  0
   20.0700    5.0360   -0.8900 H   0  0  0  0  0  0  0  0  0  0  0  0
   21.4670    4.3570    0.0000 H   0  0  0  0  0  0  0  0  0  0  0  0
  1  2  1  0  0  0  0
  1  7  1  0  0  0  0
  1  8  1  0  0  0  0
  1  9  1  0  0  0  0
  2  3  1  0  0  0  0
  2 10  1  0  0  0  0
  2 11  1  0  0  0  0
  3  4  1  0  0  0  0
  3 12  1  0  0  0  0
  3 13  1  0  0  0  0
  4  5  1  0  0  0  0
  4 14  1  0  0  0  0
  4 15  1  0  0  0  0
  5  6  1  0  0  0  0
  5 16  1  0  0  0  0
  5 17  1  0  0  0  0
  6 18  1  0  0  0  0
  6 19  1  0  0  0  0
  6 20  1  0  0  0  0
M  END
