3k6p_16.pdb
  MOE2019           3D

 29 28  0  0  0  0  0  0  0  0999 V2000
   -9.6240    7.8490    0.0000 C   0  0  0  0  0  0  0  0  0  0  0  0
   -8.3240    8.5990    0.0000 C   0  0  0  0  0  0  0  0  0  0  0  0
   -7.0250    7.8490    0.0000 O   0  0  0  0  0  0  0  0  0  0  0  0
   -5.7260    8.5990    0.0000 C   0  0  0  0  0  0  0  0  0  0  0  0
   -4.4270    7.8490    0.0000 C   0  0  0  0  0  0  0  0  0  0  0  0
   -3.1280    8.5990    0.0000 O   0  0  0  0  0  0  0  0  0  0  0  0
   -1.8290    7.8490    0.0000 C   0  0  0  0  0  0  0  0  0  0  0  0
   -0.5300    8.5990    0.0000 C   0  0  0  0  0  0  0  0  0  0  0  0
    0.7690    7.8490    0.0000 O   0  0  0  0  0  0  0  0  0  0  0  0
    2.0680    8.5990    0.0000 C   0  0  0  0  0  0  0  0  0  0  0  0
    3.3670    7.8490    0.0000 C   0  0  0  0  0  0  0  0  0  0  0  0
   -9.6240    7.2200    0.8900 H   0  0  0  0  0  0  0  0  0  0  0  0
   -9.6240    7.2200   -0.8900 H   0  0  0  0  0  0  0  0  0  0  0  0
  -10.4940    8.5060    0.0000 H   0  0  0  0  0  0  0  0  0  0  0  0
   -8.3240    9.2280    0.8900 H   0  0  0  0  0  0  0  0  0  0  0  0
   -8.3240    9.2280   -0.8900 H   0  0  0  0  0  0  0  0  0  0  0  0
   -5.7260    9.2280   -0.8900 H   0  0  0  0  0  0  0  0  0  0  0  0
   -5.7260    9.2280    0.8900 H   0  0  0  0  0  0  0  0  0  0  0  0
   -4.4270    7.2200   -0.8900 H   0  0  0  0  0  0  0  0  0  0  0  0
   -4.4270    7.2200    0.8900 H   0  0  0  0  0  0  0  0  0  0  0  0
   -1.8290    7.2200    0.8900 H   0  0  0  0  0  0  0  0  0  0  0  0
   -1.8290    7.2200   -0.8900 H   0  0  0  0  0  0  0  0  0  0  0  0
   -0.5300    9.2280    0.8900 H   0  0  0  0  0  0  0  0  0  0  0  0
   -0.5300    9.2280   -0.8900 H   0  0  0  0  0  0  0  0  0  0  0  0
    2.0680    9.2280   -0.8900 H   0  0  0  0  0  0  0  0  0  0  0  0
    2.0680    9.2280    0.8900 H   0  0  0  0  0  0  0  0  0  0  0  0
    3.3670    7.2200   -0.8900 H   0  0  0  0  0  0  0  0  0  0  0  0
    3.3670    7.2200    0.8900 H   0  0  0  0  0  0  0  0  0  0  0  0
    4.2370    8.5060    0.0000 H   0  0  0  0  0  0  0  0  0  0  0  0
  1  2  1  0  0  0  0
  1 12  1  0  0  0  0
  1 13  1  0  0  0  0
  1 14  1  0  0  0  0
  2  3  1  0  0  0  0
  2 15  1  0  0  0  0
  2 16  1  0  0  0  0
  3  4  1  0  0  0  0
  4  5  1  0  0  0  0
  4 17  1  0  0  0  0
  4 18  1  0  0  0  0
  5  6  1  0  0  0  0
  5 19  1  0  0  0  0
  5 20  1  0  0  0  0
  6  7  1  0  0  0  0
  7  8  1  0  0  0  0
  7 21  1  0  0  0  0
  7 22  1  0  0  0  0
  8  9  1  0  0  0  0
  8 23  1  0  0  0  0
  8 24  1  0  0  0  0
  9 10  1  0  0  0  0
 10 11  1  0  0  0  0
 10 25  1  0  0  0  0
 10 26  1  0  0  0  0
 11 27  1  0  0  0  0
 11 28  1  0  0  0  0
 11 29  1  0  0  0  0
M  END
