3krr_3.pdb
  MOE2019           3D

 33 32  0  0  0  0  0  0  0  0999 V2000
   -7.0440   -2.5980    0.0000 C   0  0  0  0  0  0  0  0  0  0  0  0
   -6.2940   -1.2990    0.0000 C   0  0  0  0  0  0  0  0  0  0  0  0
   -4.7940   -1.2990    0.0000 C   0  0  0  0  0  0  0  0  0  0  0  0
   -4.0440    0.0000    0.0000 C   0  0  0  0  0  0  0  0  0  0  0  0
   -2.5440    0.0000    0.0000 C   0  0  0  0  0  0  0  0  0  0  0  0
   -1.7940    1.2990    0.0000 C   0  0  0  0  0  0  0  0  0  0  0  0
   -0.2940    1.2990    0.0000 C   0  0  0  0  0  0  0  0  0  0  0  0
    0.4560    2.5980    0.0000 C   0  0  0  0  0  0  0  0  0  0  0  0
    1.9560    2.5980    0.0000 C   0  0  0  0  0  0  0  0  0  0  0  0
    2.7060    3.8970    0.0000 C   0  0  0  0  0  0  0  0  0  0  0  0
    1.9560    5.1960    0.0000 O   0  0  0  0  0  0  0  0  0  0  0  0
    4.2060    3.8970    0.0000 N   0  0  0  0  0  0  0  0  0  0  0  0
   -6.7290   -3.1430   -0.8900 H   0  0  0  0  0  0  0  0  0  0  0  0
   -6.7290   -3.1430    0.8900 H   0  0  0  0  0  0  0  0  0  0  0  0
   -8.1260   -2.4640    0.0000 H   0  0  0  0  0  0  0  0  0  0  0  0
   -6.6090   -0.7540    0.8900 H   0  0  0  0  0  0  0  0  0  0  0  0
   -6.6090   -0.7540   -0.8900 H   0  0  0  0  0  0  0  0  0  0  0  0
   -4.4790   -1.8440   -0.8900 H   0  0  0  0  0  0  0  0  0  0  0  0
   -4.4790   -1.8440    0.8900 H   0  0  0  0  0  0  0  0  0  0  0  0
   -4.3590    0.5450    0.8900 H   0  0  0  0  0  0  0  0  0  0  0  0
   -4.3590    0.5450   -0.8900 H   0  0  0  0  0  0  0  0  0  0  0  0
   -2.2290   -0.5450   -0.8900 H   0  0  0  0  0  0  0  0  0  0  0  0
   -2.2290   -0.5450    0.8900 H   0  0  0  0  0  0  0  0  0  0  0  0
   -2.1090    1.8440    0.8900 H   0  0  0  0  0  0  0  0  0  0  0  0
   -2.1090    1.8440   -0.8900 H   0  0  0  0  0  0  0  0  0  0  0  0
    0.0210    0.7540   -0.8900 H   0  0  0  0  0  0  0  0  0  0  0  0
    0.0210    0.7540    0.8900 H   0  0  0  0  0  0  0  0  0  0  0  0
    0.1410    3.1430    0.8900 H   0  0  0  0  0  0  0  0  0  0  0  0
    0.1410    3.1430   -0.8900 H   0  0  0  0  0  0  0  0  0  0  0  0
    2.2710    2.0530   -0.8900 H   0  0  0  0  0  0  0  0  0  0  0  0
    2.2710    2.0530    0.8900 H   0  0  0  0  0  0  0  0  0  0  0  0
    4.7110    3.0220    0.0000 H   0  0  0  0  0  0  0  0  0  0  0  0
    4.7110    4.7720    0.0000 H   0  0  0  0  0  0  0  0  0  0  0  0
  1  2  1  0  0  0  0
  1 13  1  0  0  0  0
  1 14  1  0  0  0  0
  1 15  1  0  0  0  0
  2  3  1  0  0  0  0
  2 16  1  0  0  0  0
  2 17  1  0  0  0  0
  3  4  1  0  0  0  0
  3 18  1  0  0  0  0
  3 19  1  0  0  0  0
  4  5  1  0  0  0  0
  4 20  1  0  0  0  0
  4 21  1  0  0  0  0
  5  6  1  0  0  0  0
  5 22  1  0  0  0  0
  5 23  1  0  0  0  0
  6  7  1  0  0  0  0
  6 24  1  0  0  0  0
  6 25  1  0  0  0  0
  7  8  1  0  0  0  0
  7 26  1  0  0  0  0
  7 27  1  0  0  0  0
  8  9  1  0  0  0  0
  8 28  1  0  0  0  0
  8 29  1  0  0  0  0
  9 10  1  0  0  0  0
  9 30  1  0  0  0  0
  9 31  1  0  0  0  0
 10 11  2  0  0  0  0
 10 12  1  0  0  0  0
 12 32  1  0  0  0  0
 12 33  1  0  0  0  0
M  END
