3krr_7.pdb
  MOE2019           3D

 44 43  0  0  0  0  0  0  0  0999 V2000
  -26.4180    6.0460    0.0000 C   0  0  0  0  0  0  0  0  0  0  0  0
  -25.1200    6.7990    0.0000 C   0  0  0  0  0  0  0  0  0  0  0  0
  -23.8200    6.0510    0.0000 O   0  0  0  0  0  0  0  0  0  0  0  0
  -22.5220    6.8040    0.0000 C   0  0  0  0  0  0  0  0  0  0  0  0
  -21.2220    6.0560    0.0000 C   0  0  0  0  0  0  0  0  0  0  0  0
  -19.9240    6.8090    0.0000 O   0  0  0  0  0  0  0  0  0  0  0  0
  -18.6240    6.0610    0.0000 C   0  0  0  0  0  0  0  0  0  0  0  0
  -17.3260    6.8140    0.0000 C   0  0  0  0  0  0  0  0  0  0  0  0
  -16.0260    6.0660    0.0000 O   0  0  0  0  0  0  0  0  0  0  0  0
  -14.7280    6.8180    0.0000 C   0  0  0  0  0  0  0  0  0  0  0  0
  -13.4280    6.0710    0.0000 C   0  0  0  0  0  0  0  0  0  0  0  0
  -12.1300    6.8230    0.0000 O   0  0  0  0  0  0  0  0  0  0  0  0
  -10.8300    6.0760    0.0000 C   0  0  0  0  0  0  0  0  0  0  0  0
   -9.5320    6.8280    0.0000 C   0  0  0  0  0  0  0  0  0  0  0  0
   -8.2320    6.0810    0.0000 O   0  0  0  0  0  0  0  0  0  0  0  0
   -6.9340    6.8330    0.0000 C   0  0  0  0  0  0  0  0  0  0  0  0
   -5.6330    6.0850    0.0000 C   0  0  0  0  0  0  0  0  0  0  0  0
   -4.3360    6.8380    0.0000 O   0  0  0  0  0  0  0  0  0  0  0  0
   -3.6260    6.1920    0.0000 H   0  0  0  0  0  0  0  0  0  0  0  0
  -26.4170    5.4170    0.8900 H   0  0  0  0  0  0  0  0  0  0  0  0
  -26.4170    5.4170   -0.8900 H   0  0  0  0  0  0  0  0  0  0  0  0
  -27.2890    6.7020    0.0000 H   0  0  0  0  0  0  0  0  0  0  0  0
  -25.1210    7.4280    0.8900 H   0  0  0  0  0  0  0  0  0  0  0  0
  -25.1210    7.4280   -0.8900 H   0  0  0  0  0  0  0  0  0  0  0  0
  -22.5230    7.4330   -0.8900 H   0  0  0  0  0  0  0  0  0  0  0  0
  -22.5230    7.4330    0.8900 H   0  0  0  0  0  0  0  0  0  0  0  0
  -21.2210    5.4270   -0.8900 H   0  0  0  0  0  0  0  0  0  0  0  0
  -21.2210    5.4270    0.8900 H   0  0  0  0  0  0  0  0  0  0  0  0
  -18.6230    5.4320    0.8900 H   0  0  0  0  0  0  0  0  0  0  0  0
  -18.6230    5.4320   -0.8900 H   0  0  0  0  0  0  0  0  0  0  0  0
  -17.3270    7.4430    0.8900 H   0  0  0  0  0  0  0  0  0  0  0  0
  -17.3270    7.4430   -0.8900 H   0  0  0  0  0  0  0  0  0  0  0  0
  -14.7290    7.4470   -0.8900 H   0  0  0  0  0  0  0  0  0  0  0  0
  -14.7290    7.4470    0.8900 H   0  0  0  0  0  0  0  0  0  0  0  0
  -13.4270    5.4420   -0.8900 H   0  0  0  0  0  0  0  0  0  0  0  0
  -13.4270    5.4420    0.8900 H   0  0  0  0  0  0  0  0  0  0  0  0
  -10.8290    5.4470    0.8900 H   0  0  0  0  0  0  0  0  0  0  0  0
  -10.8290    5.4470   -0.8900 H   0  0  0  0  0  0  0  0  0  0  0  0
   -9.5330    7.4570    0.8900 H   0  0  0  0  0  0  0  0  0  0  0  0
   -9.5330    7.4570   -0.8900 H   0  0  0  0  0  0  0  0  0  0  0  0
   -6.9350    7.4620   -0.8900 H   0  0  0  0  0  0  0  0  0  0  0  0
   -6.9350    7.4620    0.8900 H   0  0  0  0  0  0  0  0  0  0  0  0
   -5.6320    5.4560   -0.8900 H   0  0  0  0  0  0  0  0  0  0  0  0
   -5.6320    5.4560    0.8900 H   0  0  0  0  0  0  0  0  0  0  0  0
  1  2  1  0  0  0  0
  1 20  1  0  0  0  0
  1 21  1  0  0  0  0
  1 22  1  0  0  0  0
  2  3  1  0  0  0  0
  2 23  1  0  0  0  0
  2 24  1  0  0  0  0
  3  4  1  0  0  0  0
  4  5  1  0  0  0  0
  4 25  1  0  0  0  0
  4 26  1  0  0  0  0
  5  6  1  0  0  0  0
  5 27  1  0  0  0  0
  5 28  1  0  0  0  0
  6  7  1  0  0  0  0
  7  8  1  0  0  0  0
  7 29  1  0  0  0  0
  7 30  1  0  0  0  0
  8  9  1  0  0  0  0
  8 31  1  0  0  0  0
  8 32  1  0  0  0  0
  9 10  1  0  0  0  0
 10 11  1  0  0  0  0
 10 33  1  0  0  0  0
 10 34  1  0  0  0  0
 11 12  1  0  0  0  0
 11 35  1  0  0  0  0
 11 36  1  0  0  0  0
 12 13  1  0  0  0  0
 13 14  1  0  0  0  0
 13 37  1  0  0  0  0
 13 38  1  0  0  0  0
 14 15  1  0  0  0  0
 14 39  1  0  0  0  0
 14 40  1  0  0  0  0
 15 16  1  0  0  0  0
 16 17  1  0  0  0  0
 16 41  1  0  0  0  0
 16 42  1  0  0  0  0
 17 18  1  0  0  0  0
 17 43  1  0  0  0  0
 17 44  1  0  0  0  0
 18 19  1  0  0  0  0
M  END
