3lq5_15.pdb
  MOE2019           3D

 27 26  0  0  0  0  0  0  0  0999 V2000
    9.2840    5.3600    0.0000 O   0  0  0  0  0  0  0  0  0  0  0  0
    8.5340    4.0610    0.0000 C   0  0  0  0  0  0  0  0  0  0  0  0
    9.2840    2.7620    0.0000 N   0  0  0  0  0  0  0  0  0  0  0  0
   10.7840    2.7620    0.0000 C   0  0  0  0  0  0  0  0  0  0  0  0
   11.5340    1.4630    0.0000 C   0  0  0  0  0  0  0  0  0  0  0  0
   13.0340    1.4630    0.0000 C   0  0  0  0  0  0  0  0  0  0  0  0
   13.7840    0.1640    0.0000 C   0  0  0  0  0  0  0  0  0  0  0  0
   15.2840    0.1640    0.0000 C   0  0  0  0  0  0  0  0  0  0  0  0
   16.0340   -1.1350    0.0000 C   0  0  0  0  0  0  0  0  0  0  0  0
    7.0340    4.0610    0.0000 C   0  0  0  0  0  0  0  0  0  0  0  0
    8.7790    1.8870    0.0000 H   0  0  0  0  0  0  0  0  0  0  0  0
   11.0990    3.3070    0.8900 H   0  0  0  0  0  0  0  0  0  0  0  0
   11.0990    3.3070   -0.8900 H   0  0  0  0  0  0  0  0  0  0  0  0
   11.2190    0.9180   -0.8900 H   0  0  0  0  0  0  0  0  0  0  0  0
   11.2190    0.9180    0.8900 H   0  0  0  0  0  0  0  0  0  0  0  0
   13.3490    2.0080    0.8900 H   0  0  0  0  0  0  0  0  0  0  0  0
   13.3490    2.0080   -0.8900 H   0  0  0  0  0  0  0  0  0  0  0  0
   13.4690   -0.3810   -0.8900 H   0  0  0  0  0  0  0  0  0  0  0  0
   13.4690   -0.3810    0.8900 H   0  0  0  0  0  0  0  0  0  0  0  0
   15.5990    0.7090    0.8900 H   0  0  0  0  0  0  0  0  0  0  0  0
   15.5990    0.7090   -0.8900 H   0  0  0  0  0  0  0  0  0  0  0  0
   15.7190   -1.6800   -0.8900 H   0  0  0  0  0  0  0  0  0  0  0  0
   17.1160   -1.0010    0.0000 H   0  0  0  0  0  0  0  0  0  0  0  0
   15.7190   -1.6800    0.8900 H   0  0  0  0  0  0  0  0  0  0  0  0
    6.7190    4.6060   -0.8900 H   0  0  0  0  0  0  0  0  0  0  0  0
    6.6100    3.0570    0.0000 H   0  0  0  0  0  0  0  0  0  0  0  0
    6.7190    4.6060    0.8900 H   0  0  0  0  0  0  0  0  0  0  0  0
  1  2  2  0  0  0  0
  2  3  1  0  0  0  0
  2 10  1  0  0  0  0
  3  4  1  0  0  0  0
  3 11  1  0  0  0  0
  4  5  1  0  0  0  0
  4 12  1  0  0  0  0
  4 13  1  0  0  0  0
  5  6  1  0  0  0  0
  5 14  1  0  0  0  0
  5 15  1  0  0  0  0
  6  7  1  0  0  0  0
  6 16  1  0  0  0  0
  6 17  1  0  0  0  0
  7  8  1  0  0  0  0
  7 18  1  0  0  0  0
  7 19  1  0  0  0  0
  8  9  1  0  0  0  0
  8 20  1  0  0  0  0
  8 21  1  0  0  0  0
  9 22  1  0  0  0  0
  9 23  1  0  0  0  0
  9 24  1  0  0  0  0
 10 25  1  0  0  0  0
 10 26  1  0  0  0  0
 10 27  1  0  0  0  0
M  END
