3mxf_1.pdb
  MOE2019           3D

 22 21  0  0  0  0  0  0  0  0999 V2000
    8.5240   -7.4250    0.0000 C   0  0  0  0  0  0  0  0  0  0  0  0
    9.8240   -6.6760    0.0000 C   0  0  0  0  0  0  0  0  0  0  0  0
   11.1220   -7.4280    0.0000 C   0  0  0  0  0  0  0  0  0  0  0  0
   12.4220   -6.6790    0.0000 C   0  0  0  0  0  0  0  0  0  0  0  0
   13.7200   -7.4310    0.0000 N   0  0  0  0  0  0  0  0  0  0  0  0
   15.0200   -6.6820    0.0000 C   0  0  0  0  0  0  0  0  0  0  0  0
   15.0210   -5.1820    0.0000 O   0  0  0  0  0  0  0  0  0  0  0  0
   16.3180   -7.4340    0.0000 C   0  0  0  0  0  0  0  0  0  0  0  0
   17.6180   -6.6850    0.0000 O   0  0  0  0  0  0  0  0  0  0  0  0
   18.3260   -7.3330    0.0000 H   0  0  0  0  0  0  0  0  0  0  0  0
    8.5230   -8.0540    0.8900 H   0  0  0  0  0  0  0  0  0  0  0  0
    8.5230   -8.0540   -0.8900 H   0  0  0  0  0  0  0  0  0  0  0  0
    7.6550   -6.7670    0.0000 H   0  0  0  0  0  0  0  0  0  0  0  0
    9.8250   -6.0470   -0.8900 H   0  0  0  0  0  0  0  0  0  0  0  0
    9.8250   -6.0470    0.8900 H   0  0  0  0  0  0  0  0  0  0  0  0
   11.1210   -8.0570   -0.8900 H   0  0  0  0  0  0  0  0  0  0  0  0
   11.1210   -8.0570    0.8900 H   0  0  0  0  0  0  0  0  0  0  0  0
   12.4230   -6.0500    0.8900 H   0  0  0  0  0  0  0  0  0  0  0  0
   12.4230   -6.0500   -0.8900 H   0  0  0  0  0  0  0  0  0  0  0  0
   13.7190   -8.4410    0.0000 H   0  0  0  0  0  0  0  0  0  0  0  0
   16.3170   -8.0630   -0.8900 H   0  0  0  0  0  0  0  0  0  0  0  0
   16.3170   -8.0630    0.8900 H   0  0  0  0  0  0  0  0  0  0  0  0
  1  2  1  0  0  0  0
  1 11  1  0  0  0  0
  1 12  1  0  0  0  0
  1 13  1  0  0  0  0
  2  3  1  0  0  0  0
  2 14  1  0  0  0  0
  2 15  1  0  0  0  0
  3  4  1  0  0  0  0
  3 16  1  0  0  0  0
  3 17  1  0  0  0  0
  4  5  1  0  0  0  0
  4 18  1  0  0  0  0
  4 19  1  0  0  0  0
  5  6  1  0  0  0  0
  5 20  1  0  0  0  0
  6  7  2  0  0  0  0
  6  8  1  0  0  0  0
  8  9  1  0  0  0  0
  8 21  1  0  0  0  0
  8 22  1  0  0  0  0
  9 10  1  0  0  0  0
M  END
