3mxf_19.pdb
  MOE2019           3D

 33 33  0  0  0  0  0  0  0  0999 V2000
    6.9960   -4.0980    0.0000 O   0  0  0  0  0  0  0  0  0  0  0  0
    7.8070   -5.3600    0.0000 C   0  0  0  0  0  0  0  0  0  0  0  0
    9.3050   -5.2880    0.0000 N   0  0  0  0  0  0  0  0  0  0  0  0
    7.1200   -6.6930    0.0000 C   0  0  0  0  0  0  0  0  0  0  0  0
    5.6220   -6.7650    0.0000 O   0  0  0  0  0  0  0  0  0  0  0  0
    4.9350   -8.0990    0.0000 C   0  0  0  0  0  0  0  0  0  0  0  0
    3.4370   -8.1710    0.0000 C   0  0  0  0  0  0  0  0  0  0  0  0
    2.7500   -9.5040    0.0000 O   0  0  0  0  0  0  0  0  0  0  0  0
    1.2520   -9.5770    0.0000 C   0  0  0  0  0  0  0  0  0  0  0  0
    0.5650  -10.9100    0.0000 O   0  0  0  0  0  0  0  0  0  0  0  0
   -0.9330  -10.9820    0.0000 C   0  0  0  0  0  0  0  0  0  0  0  0
   -1.6200  -12.3160    0.0000 C   0  0  0  0  0  0  0  0  0  0  0  0
   -3.1180  -12.3880    0.0000 N   0  0  0  0  0  0  0  0  0  0  0  0
   -3.9400  -13.6420    0.0000 N   0  0  0  0  0  0  0  0  0  0  0  0
   -5.3880  -13.2480    0.0000 N   0  0  0  0  0  0  0  0  0  0  0  0
   -5.4600  -11.7490    0.0000 C   0  0  0  0  0  0  0  0  0  0  0  0
   -6.3630  -11.1570    0.0000 H   0  0  0  0  0  0  0  0  0  0  0  0
   -4.0570  -11.2180    0.0000 C   0  0  0  0  0  0  0  0  0  0  0  0
    9.8510   -6.1370    0.0000 H   0  0  0  0  0  0  0  0  0  0  0  0
    9.7670   -4.3900    0.0000 H   0  0  0  0  0  0  0  0  0  0  0  0
    7.4600   -7.2220    0.8900 H   0  0  0  0  0  0  0  0  0  0  0  0
    7.4600   -7.2220   -0.8900 H   0  0  0  0  0  0  0  0  0  0  0  0
    5.2750   -8.6280    0.8900 H   0  0  0  0  0  0  0  0  0  0  0  0
    5.2750   -8.6280   -0.8900 H   0  0  0  0  0  0  0  0  0  0  0  0
    3.0970   -7.6420   -0.8900 H   0  0  0  0  0  0  0  0  0  0  0  0
    3.0970   -7.6420    0.8900 H   0  0  0  0  0  0  0  0  0  0  0  0
    0.9110   -9.0480   -0.8900 H   0  0  0  0  0  0  0  0  0  0  0  0
    0.9110   -9.0480    0.8900 H   0  0  0  0  0  0  0  0  0  0  0  0
   -1.2730  -10.4530   -0.8900 H   0  0  0  0  0  0  0  0  0  0  0  0
   -1.2730  -10.4530    0.8900 H   0  0  0  0  0  0  0  0  0  0  0  0
   -1.2800  -12.8450    0.8900 H   0  0  0  0  0  0  0  0  0  0  0  0
   -1.2800  -12.8450   -0.8900 H   0  0  0  0  0  0  0  0  0  0  0  0
   -3.7730  -10.1760    0.0000 H   0  0  0  0  0  0  0  0  0  0  0  0
  1  2  2  0  0  0  0
  2  3  1  0  0  0  0
  2  4  1  0  0  0  0
  3 19  1  0  0  0  0
  3 20  1  0  0  0  0
  4  5  1  0  0  0  0
  4 21  1  0  0  0  0
  4 22  1  0  0  0  0
  5  6  1  0  0  0  0
  6  7  1  0  0  0  0
  6 23  1  0  0  0  0
  6 24  1  0  0  0  0
  7  8  1  0  0  0  0
  7 25  1  0  0  0  0
  7 26  1  0  0  0  0
  8  9  1  0  0  0  0
  9 10  1  0  0  0  0
  9 27  1  0  0  0  0
  9 28  1  0  0  0  0
 10 11  1  0  0  0  0
 11 12  1  0  0  0  0
 11 29  1  0  0  0  0
 11 30  1  0  0  0  0
 12 13  1  0  0  0  0
 12 31  1  0  0  0  0
 12 32  1  0  0  0  0
 13 14  1  0  0  0  0
 13 18  1  0  0  0  0
 14 15  2  0  0  0  0
 15 16  1  0  0  0  0
 16 17  1  0  0  0  0
 16 18  2  0  0  0  0
 18 33  1  0  0  0  0
M  END
