3mxf_30.pdb
  MOE2019           3D

 39 39  0  0  0  0  0  0  0  0999 V2000
   14.2980   10.2090    0.0000 C   0  0  0  0  0  0  0  0  0  0  0  0
   12.7980   10.2080    0.0000 C   0  0  0  0  0  0  0  0  0  0  0  0
   12.0490    8.9080    0.0000 C   0  0  0  0  0  0  0  0  0  0  0  0
   10.5490    8.9070    0.0000 N   0  0  0  0  0  0  0  0  0  0  0  0
    9.8000    7.6070    0.0000 C   0  0  0  0  0  0  0  0  0  0  0  0
   10.5510    6.3090    0.0000 O   0  0  0  0  0  0  0  0  0  0  0  0
    8.3000    7.6060    0.0000 C   0  0  0  0  0  0  0  0  0  0  0  0
    7.5510    6.3060    0.0000 O   0  0  0  0  0  0  0  0  0  0  0  0
    6.0510    6.3050    0.0000 C   0  0  0  0  0  0  0  0  0  0  0  0
    5.3000    7.6030    0.0000 C   0  0  0  0  0  0  0  0  0  0  0  0
    6.0490    8.9030    0.0000 O   0  0  0  0  0  0  0  0  0  0  0  0
    5.2980   10.2020    0.0000 C   0  0  0  0  0  0  0  0  0  0  0  0
    3.8000    7.6020    0.0000 C   0  0  0  0  0  0  0  0  0  0  0  0
    3.0510    6.3030    0.0000 C   0  0  0  0  0  0  0  0  0  0  0  0
    1.5510    6.3010    0.0000 N   0  0  0  0  0  0  0  0  0  0  0  0
    0.8000    7.6000    0.0000 N   0  0  0  0  0  0  0  0  0  0  0  0
    1.3040    8.4750    0.0000 H   0  0  0  0  0  0  0  0  0  0  0  0
    3.8020    5.0040    0.0000 C   0  0  0  0  0  0  0  0  0  0  0  0
    5.3020    5.0050    0.0000 C   0  0  0  0  0  0  0  0  0  0  0  0
    6.0530    3.7070    0.0000 O   0  0  0  0  0  0  0  0  0  0  0  0
    5.3040    2.4070    0.0000 C   0  0  0  0  0  0  0  0  0  0  0  0
   14.6130    9.6640   -0.8900 H   0  0  0  0  0  0  0  0  0  0  0  0
   14.6130    9.6640    0.8900 H   0  0  0  0  0  0  0  0  0  0  0  0
   14.7220   11.2130    0.0000 H   0  0  0  0  0  0  0  0  0  0  0  0
   12.4830   10.7530   -0.8900 H   0  0  0  0  0  0  0  0  0  0  0  0
   12.4830   10.7530    0.8900 H   0  0  0  0  0  0  0  0  0  0  0  0
   12.3640    8.3630    0.8900 H   0  0  0  0  0  0  0  0  0  0  0  0
   12.3640    8.3630   -0.8900 H   0  0  0  0  0  0  0  0  0  0  0  0
   10.0430    9.7810    0.0000 H   0  0  0  0  0  0  0  0  0  0  0  0
    7.9850    8.1510   -0.8900 H   0  0  0  0  0  0  0  0  0  0  0  0
    7.9850    8.1510    0.8900 H   0  0  0  0  0  0  0  0  0  0  0  0
    6.0060   11.0310    0.0000 H   0  0  0  0  0  0  0  0  0  0  0  0
    4.6710   10.2590    0.8900 H   0  0  0  0  0  0  0  0  0  0  0  0
    4.6710   10.2590   -0.8900 H   0  0  0  0  0  0  0  0  0  0  0  0
    3.2590    8.5370    0.0000 H   0  0  0  0  0  0  0  0  0  0  0  0
    3.2630    4.0680    0.0000 H   0  0  0  0  0  0  0  0  0  0  0  0
    6.0130    1.5790    0.0000 H   0  0  0  0  0  0  0  0  0  0  0  0
    4.6770    2.3490   -0.8900 H   0  0  0  0  0  0  0  0  0  0  0  0
    4.6770    2.3490    0.8900 H   0  0  0  0  0  0  0  0  0  0  0  0
  1  2  1  0  0  0  0
  1 22  1  0  0  0  0
  1 23  1  0  0  0  0
  1 24  1  0  0  0  0
  2  3  1  0  0  0  0
  2 25  1  0  0  0  0
  2 26  1  0  0  0  0
  3  4  1  0  0  0  0
  3 27  1  0  0  0  0
  3 28  1  0  0  0  0
  4  5  1  0  0  0  0
  4 29  1  0  0  0  0
  5  6  2  0  0  0  0
  5  7  1  0  0  0  0
  7  8  1  0  0  0  0
  7 30  1  0  0  0  0
  7 31  1  0  0  0  0
  8  9  1  0  0  0  0
  9 10  1  0  0  0  0
  9 19  2  0  0  0  0
 10 11  1  0  0  0  0
 10 13  2  0  0  0  0
 11 12  1  0  0  0  0
 12 32  1  0  0  0  0
 12 33  1  0  0  0  0
 12 34  1  0  0  0  0
 13 14  1  0  0  0  0
 13 35  1  0  0  0  0
 14 15  1  0  0  0  0
 14 18  2  0  0  0  0
 15 16  2  0  0  0  0
 16 17  1  0  0  0  0
 18 19  1  0  0  0  0
 18 36  1  0  0  0  0
 19 20  1  0  0  0  0
 20 21  1  0  0  0  0
 21 37  1  0  0  0  0
 21 38  1  0  0  0  0
 21 39  1  0  0  0  0
M  END
