3mxf_15.pdb
  MOE2019           3D

 21 20  0  0  0  0  0  0  0  0999 V2000
    7.6300    7.6300    0.0000 O   0  0  0  0  0  0  0  0  0  0  0  0
    7.6300    6.1300    0.0000 C   0  0  0  0  0  0  0  0  0  0  0  0
    8.9290    5.3800    0.0000 N   0  0  0  0  0  0  0  0  0  0  0  0
    6.3310    5.3800    0.0000 C   0  0  0  0  0  0  0  0  0  0  0  0
    5.0320    6.1300    0.0000 C   0  0  0  0  0  0  0  0  0  0  0  0
    3.7330    5.3800    0.0000 C   0  0  0  0  0  0  0  0  0  0  0  0
    2.4340    6.1300    0.0000 C   0  0  0  0  0  0  0  0  0  0  0  0
    1.1350    5.3800    0.0000 C   0  0  0  0  0  0  0  0  0  0  0  0
    9.8040    5.8850    0.0000 H   0  0  0  0  0  0  0  0  0  0  0  0
    8.9290    4.3700    0.0000 H   0  0  0  0  0  0  0  0  0  0  0  0
    6.3310    4.7510    0.8900 H   0  0  0  0  0  0  0  0  0  0  0  0
    6.3310    4.7510   -0.8900 H   0  0  0  0  0  0  0  0  0  0  0  0
    5.0320    6.7590   -0.8900 H   0  0  0  0  0  0  0  0  0  0  0  0
    5.0320    6.7590    0.8900 H   0  0  0  0  0  0  0  0  0  0  0  0
    3.7330    4.7510    0.8900 H   0  0  0  0  0  0  0  0  0  0  0  0
    3.7330    4.7510   -0.8900 H   0  0  0  0  0  0  0  0  0  0  0  0
    2.4340    6.7590   -0.8900 H   0  0  0  0  0  0  0  0  0  0  0  0
    2.4340    6.7590    0.8900 H   0  0  0  0  0  0  0  0  0  0  0  0
    1.1350    4.7510    0.8900 H   0  0  0  0  0  0  0  0  0  0  0  0
    0.2650    6.0370    0.0000 H   0  0  0  0  0  0  0  0  0  0  0  0
    1.1350    4.7510   -0.8900 H   0  0  0  0  0  0  0  0  0  0  0  0
  1  2  2  0  0  0  0
  2  3  1  0  0  0  0
  2  4  1  0  0  0  0
  3  9  1  0  0  0  0
  3 10  1  0  0  0  0
  4  5  1  0  0  0  0
  4 11  1  0  0  0  0
  4 12  1  0  0  0  0
  5  6  1  0  0  0  0
  5 13  1  0  0  0  0
  5 14  1  0  0  0  0
  6  7  1  0  0  0  0
  6 15  1  0  0  0  0
  6 16  1  0  0  0  0
  7  8  1  0  0  0  0
  7 17  1  0  0  0  0
  7 18  1  0  0  0  0
  8 19  1  0  0  0  0
  8 20  1  0  0  0  0
  8 21  1  0  0  0  0
M  END
