3mxf_32.pdb
  MOE2019           3D

 45 45  0  0  0  0  0  0  0  0999 V2000
   -1.9310  -12.9260    0.0000 C   0  0  0  0  0  0  0  0  0  0  0  0
   -0.6320  -13.6770    0.0000 C   0  0  0  0  0  0  0  0  0  0  0  0
    0.6680  -12.9280    0.0000 C   0  0  0  0  0  0  0  0  0  0  0  0
    1.9660  -13.6790    0.0000 C   0  0  0  0  0  0  0  0  0  0  0  0
    3.2660  -12.9300    0.0000 C   0  0  0  0  0  0  0  0  0  0  0  0
    4.5640  -13.6810    0.0000 N   0  0  0  0  0  0  0  0  0  0  0  0
    5.8640  -12.9320    0.0000 C   0  0  0  0  0  0  0  0  0  0  0  0
    5.8650  -11.4320    0.0000 O   0  0  0  0  0  0  0  0  0  0  0  0
    7.1620  -13.6830    0.0000 C   0  0  0  0  0  0  0  0  0  0  0  0
    8.4620  -12.9350    0.0000 O   0  0  0  0  0  0  0  0  0  0  0  0
    9.7600  -13.6860    0.0000 C   0  0  0  0  0  0  0  0  0  0  0  0
    9.7590  -15.1860    0.0000 C   0  0  0  0  0  0  0  0  0  0  0  0
    8.4590  -15.9340    0.0000 O   0  0  0  0  0  0  0  0  0  0  0  0
    8.4580  -17.4340    0.0000 C   0  0  0  0  0  0  0  0  0  0  0  0
   11.0570  -15.9370    0.0000 C   0  0  0  0  0  0  0  0  0  0  0  0
   12.3570  -15.1880    0.0000 C   0  0  0  0  0  0  0  0  0  0  0  0
   13.6550  -15.9390    0.0000 N   0  0  0  0  0  0  0  0  0  0  0  0
   14.9550  -15.1900    0.0000 N   0  0  0  0  0  0  0  0  0  0  0  0
   14.9560  -14.1800    0.0000 H   0  0  0  0  0  0  0  0  0  0  0  0
   12.3580  -13.6880    0.0000 C   0  0  0  0  0  0  0  0  0  0  0  0
   11.0600  -12.9370    0.0000 C   0  0  0  0  0  0  0  0  0  0  0  0
   11.0610  -11.4370    0.0000 O   0  0  0  0  0  0  0  0  0  0  0  0
   12.3610  -10.6880    0.0000 C   0  0  0  0  0  0  0  0  0  0  0  0
   -1.9310  -12.2970   -0.8900 H   0  0  0  0  0  0  0  0  0  0  0  0
   -1.9310  -12.2970    0.8900 H   0  0  0  0  0  0  0  0  0  0  0  0
   -2.8010  -13.5830    0.0000 H   0  0  0  0  0  0  0  0  0  0  0  0
   -0.6320  -14.3060    0.8900 H   0  0  0  0  0  0  0  0  0  0  0  0
   -0.6320  -14.3060   -0.8900 H   0  0  0  0  0  0  0  0  0  0  0  0
    0.6690  -12.2990    0.8900 H   0  0  0  0  0  0  0  0  0  0  0  0
    0.6690  -12.2990   -0.8900 H   0  0  0  0  0  0  0  0  0  0  0  0
    1.9650  -14.3080   -0.8900 H   0  0  0  0  0  0  0  0  0  0  0  0
    1.9650  -14.3080    0.8900 H   0  0  0  0  0  0  0  0  0  0  0  0
    3.2670  -12.3010    0.8900 H   0  0  0  0  0  0  0  0  0  0  0  0
    3.2670  -12.3010   -0.8900 H   0  0  0  0  0  0  0  0  0  0  0  0
    4.5630  -14.6910    0.0000 H   0  0  0  0  0  0  0  0  0  0  0  0
    7.1610  -14.3120   -0.8900 H   0  0  0  0  0  0  0  0  0  0  0  0
    7.1610  -14.3120    0.8900 H   0  0  0  0  0  0  0  0  0  0  0  0
    7.4300  -17.7970    0.0000 H   0  0  0  0  0  0  0  0  0  0  0  0
    8.9720  -17.7980    0.8900 H   0  0  0  0  0  0  0  0  0  0  0  0
    8.9720  -17.7980   -0.8900 H   0  0  0  0  0  0  0  0  0  0  0  0
   11.0560  -17.0170    0.0000 H   0  0  0  0  0  0  0  0  0  0  0  0
   13.2940  -13.1490    0.0000 H   0  0  0  0  0  0  0  0  0  0  0  0
   12.1630   -9.6160    0.0000 H   0  0  0  0  0  0  0  0  0  0  0  0
   12.9320  -10.9520   -0.8900 H   0  0  0  0  0  0  0  0  0  0  0  0
   12.9320  -10.9520    0.8900 H   0  0  0  0  0  0  0  0  0  0  0  0
  1  2  1  0  0  0  0
  1 24  1  0  0  0  0
  1 25  1  0  0  0  0
  1 26  1  0  0  0  0
  2  3  1  0  0  0  0
  2 27  1  0  0  0  0
  2 28  1  0  0  0  0
  3  4  1  0  0  0  0
  3 29  1  0  0  0  0
  3 30  1  0  0  0  0
  4  5  1  0  0  0  0
  4 31  1  0  0  0  0
  4 32  1  0  0  0  0
  5  6  1  0  0  0  0
  5 33  1  0  0  0  0
  5 34  1  0  0  0  0
  6  7  1  0  0  0  0
  6 35  1  0  0  0  0
  7  8  2  0  0  0  0
  7  9  1  0  0  0  0
  9 10  1  0  0  0  0
  9 36  1  0  0  0  0
  9 37  1  0  0  0  0
 10 11  1  0  0  0  0
 11 12  1  0  0  0  0
 11 21  2  0  0  0  0
 12 13  1  0  0  0  0
 12 15  2  0  0  0  0
 13 14  1  0  0  0  0
 14 38  1  0  0  0  0
 14 39  1  0  0  0  0
 14 40  1  0  0  0  0
 15 16  1  0  0  0  0
 15 41  1  0  0  0  0
 16 17  1  0  0  0  0
 16 20  2  0  0  0  0
 17 18  2  0  0  0  0
 18 19  1  0  0  0  0
 20 21  1  0  0  0  0
 20 42  1  0  0  0  0
 21 22  1  0  0  0  0
 22 23  1  0  0  0  0
 23 43  1  0  0  0  0
 23 44  1  0  0  0  0
 23 45  1  0  0  0  0
M  END
