3mxf_17.pdb
  MOE2019           3D

 29 29  0  0  0  0  0  0  0  0999 V2000
    6.1070   11.2170    0.0000 O   0  0  0  0  0  0  0  0  0  0  0  0
    6.9210    9.9570    0.0000 C   0  0  0  0  0  0  0  0  0  0  0  0
    8.4190   10.0320    0.0000 N   0  0  0  0  0  0  0  0  0  0  0  0
    6.2370    8.6220    0.0000 C   0  0  0  0  0  0  0  0  0  0  0  0
    4.7390    8.5470    0.0000 O   0  0  0  0  0  0  0  0  0  0  0  0
    4.0550    7.2120    0.0000 C   0  0  0  0  0  0  0  0  0  0  0  0
    2.5570    7.1370    0.0000 C   0  0  0  0  0  0  0  0  0  0  0  0
    1.8730    5.8020    0.0000 O   0  0  0  0  0  0  0  0  0  0  0  0
    0.3750    5.7270    0.0000 C   0  0  0  0  0  0  0  0  0  0  0  0
   -0.3090    4.3920    0.0000 C   0  0  0  0  0  0  0  0  0  0  0  0
   -1.8080    4.3170    0.0000 N   0  0  0  0  0  0  0  0  0  0  0  0
   -2.6270    3.0610    0.0000 N   0  0  0  0  0  0  0  0  0  0  0  0
   -4.0750    3.4520    0.0000 N   0  0  0  0  0  0  0  0  0  0  0  0
   -4.1510    4.9500    0.0000 C   0  0  0  0  0  0  0  0  0  0  0  0
   -5.0560    5.5400    0.0000 H   0  0  0  0  0  0  0  0  0  0  0  0
   -2.7490    5.4850    0.0000 C   0  0  0  0  0  0  0  0  0  0  0  0
    8.8790   10.9310    0.0000 H   0  0  0  0  0  0  0  0  0  0  0  0
    8.9670    9.1840    0.0000 H   0  0  0  0  0  0  0  0  0  0  0  0
    6.5790    8.0930    0.8900 H   0  0  0  0  0  0  0  0  0  0  0  0
    6.5790    8.0930   -0.8900 H   0  0  0  0  0  0  0  0  0  0  0  0
    4.3970    6.6830    0.8900 H   0  0  0  0  0  0  0  0  0  0  0  0
    4.3970    6.6830   -0.8900 H   0  0  0  0  0  0  0  0  0  0  0  0
    2.2150    7.6660   -0.8900 H   0  0  0  0  0  0  0  0  0  0  0  0
    2.2150    7.6660    0.8900 H   0  0  0  0  0  0  0  0  0  0  0  0
    0.0330    6.2560   -0.8900 H   0  0  0  0  0  0  0  0  0  0  0  0
    0.0330    6.2560    0.8900 H   0  0  0  0  0  0  0  0  0  0  0  0
    0.0330    3.8630    0.8900 H   0  0  0  0  0  0  0  0  0  0  0  0
    0.0330    3.8630   -0.8900 H   0  0  0  0  0  0  0  0  0  0  0  0
   -2.4670    6.5280    0.0000 H   0  0  0  0  0  0  0  0  0  0  0  0
  1  2  2  0  0  0  0
  2  3  1  0  0  0  0
  2  4  1  0  0  0  0
  3 17  1  0  0  0  0
  3 18  1  0  0  0  0
  4  5  1  0  0  0  0
  4 19  1  0  0  0  0
  4 20  1  0  0  0  0
  5  6  1  0  0  0  0
  6  7  1  0  0  0  0
  6 21  1  0  0  0  0
  6 22  1  0  0  0  0
  7  8  1  0  0  0  0
  7 23  1  0  0  0  0
  7 24  1  0  0  0  0
  8  9  1  0  0  0  0
  9 10  1  0  0  0  0
  9 25  1  0  0  0  0
  9 26  1  0  0  0  0
 10 11  1  0  0  0  0
 10 27  1  0  0  0  0
 10 28  1  0  0  0  0
 11 12  1  0  0  0  0
 11 16  1  0  0  0  0
 12 13  2  0  0  0  0
 13 14  1  0  0  0  0
 14 15  1  0  0  0  0
 14 16  2  0  0  0  0
 16 29  1  0  0  0  0
M  END
