3mxf_31.pdb
  MOE2019           3D

 42 42  0  0  0  0  0  0  0  0999 V2000
   -1.4920  -12.6030    0.0000 C   0  0  0  0  0  0  0  0  0  0  0  0
   -0.1940  -13.3540    0.0000 C   0  0  0  0  0  0  0  0  0  0  0  0
    1.1060  -12.6050    0.0000 C   0  0  0  0  0  0  0  0  0  0  0  0
    2.4050  -13.3560    0.0000 C   0  0  0  0  0  0  0  0  0  0  0  0
    3.7040  -12.6070    0.0000 N   0  0  0  0  0  0  0  0  0  0  0  0
    5.0030  -13.3580    0.0000 C   0  0  0  0  0  0  0  0  0  0  0  0
    5.0010  -14.8580    0.0000 O   0  0  0  0  0  0  0  0  0  0  0  0
    6.3020  -12.6090    0.0000 C   0  0  0  0  0  0  0  0  0  0  0  0
    7.6010  -13.3600    0.0000 O   0  0  0  0  0  0  0  0  0  0  0  0
    8.9000  -12.6110    0.0000 C   0  0  0  0  0  0  0  0  0  0  0  0
    8.9020  -11.1110    0.0000 C   0  0  0  0  0  0  0  0  0  0  0  0
    7.6030  -10.3600    0.0000 O   0  0  0  0  0  0  0  0  0  0  0  0
    7.6040   -8.8600    0.0000 C   0  0  0  0  0  0  0  0  0  0  0  0
   10.2010  -10.3620    0.0000 C   0  0  0  0  0  0  0  0  0  0  0  0
   11.5000  -11.1130    0.0000 C   0  0  0  0  0  0  0  0  0  0  0  0
   12.7990  -10.3640    0.0000 N   0  0  0  0  0  0  0  0  0  0  0  0
   14.0980  -11.1160    0.0000 N   0  0  0  0  0  0  0  0  0  0  0  0
   14.0970  -12.1260    0.0000 H   0  0  0  0  0  0  0  0  0  0  0  0
   11.4980  -12.6130    0.0000 C   0  0  0  0  0  0  0  0  0  0  0  0
   10.1990  -13.3620    0.0000 C   0  0  0  0  0  0  0  0  0  0  0  0
   10.1980  -14.8620    0.0000 O   0  0  0  0  0  0  0  0  0  0  0  0
   11.4960  -15.6130    0.0000 C   0  0  0  0  0  0  0  0  0  0  0  0
   -1.4910  -11.9740   -0.8900 H   0  0  0  0  0  0  0  0  0  0  0  0
   -1.4910  -11.9740    0.8900 H   0  0  0  0  0  0  0  0  0  0  0  0
   -2.3630  -13.2590    0.0000 H   0  0  0  0  0  0  0  0  0  0  0  0
   -0.1950  -13.9830    0.8900 H   0  0  0  0  0  0  0  0  0  0  0  0
   -0.1950  -13.9830   -0.8900 H   0  0  0  0  0  0  0  0  0  0  0  0
    1.1060  -11.9760    0.8900 H   0  0  0  0  0  0  0  0  0  0  0  0
    1.1060  -11.9760   -0.8900 H   0  0  0  0  0  0  0  0  0  0  0  0
    2.4050  -13.9850   -0.8900 H   0  0  0  0  0  0  0  0  0  0  0  0
    2.4050  -13.9850    0.8900 H   0  0  0  0  0  0  0  0  0  0  0  0
    3.7050  -11.5970    0.0000 H   0  0  0  0  0  0  0  0  0  0  0  0
    6.3020  -11.9800    0.8900 H   0  0  0  0  0  0  0  0  0  0  0  0
    6.3020  -11.9800   -0.8900 H   0  0  0  0  0  0  0  0  0  0  0  0
    6.5770   -8.4960    0.0000 H   0  0  0  0  0  0  0  0  0  0  0  0
    8.1180   -8.4970   -0.8900 H   0  0  0  0  0  0  0  0  0  0  0  0
    8.1180   -8.4970    0.8900 H   0  0  0  0  0  0  0  0  0  0  0  0
   10.2020   -9.2820    0.0000 H   0  0  0  0  0  0  0  0  0  0  0  0
   12.4330  -13.1540    0.0000 H   0  0  0  0  0  0  0  0  0  0  0  0
   11.2960  -16.6840    0.0000 H   0  0  0  0  0  0  0  0  0  0  0  0
   12.0680  -15.3500    0.8900 H   0  0  0  0  0  0  0  0  0  0  0  0
   12.0680  -15.3500   -0.8900 H   0  0  0  0  0  0  0  0  0  0  0  0
  1  2  1  0  0  0  0
  1 23  1  0  0  0  0
  1 24  1  0  0  0  0
  1 25  1  0  0  0  0
  2  3  1  0  0  0  0
  2 26  1  0  0  0  0
  2 27  1  0  0  0  0
  3  4  1  0  0  0  0
  3 28  1  0  0  0  0
  3 29  1  0  0  0  0
  4  5  1  0  0  0  0
  4 30  1  0  0  0  0
  4 31  1  0  0  0  0
  5  6  1  0  0  0  0
  5 32  1  0  0  0  0
  6  7  2  0  0  0  0
  6  8  1  0  0  0  0
  8  9  1  0  0  0  0
  8 33  1  0  0  0  0
  8 34  1  0  0  0  0
  9 10  1  0  0  0  0
 10 11  1  0  0  0  0
 10 20  2  0  0  0  0
 11 12  1  0  0  0  0
 11 14  2  0  0  0  0
 12 13  1  0  0  0  0
 13 35  1  0  0  0  0
 13 36  1  0  0  0  0
 13 37  1  0  0  0  0
 14 15  1  0  0  0  0
 14 38  1  0  0  0  0
 15 16  1  0  0  0  0
 15 19  2  0  0  0  0
 16 17  2  0  0  0  0
 17 18  1  0  0  0  0
 19 20  1  0  0  0  0
 19 39  1  0  0  0  0
 20 21  1  0  0  0  0
 21 22  1  0  0  0  0
 22 40  1  0  0  0  0
 22 41  1  0  0  0  0
 22 42  1  0  0  0  0
M  END
