3mxf_41.pdb
  MOE2019           3D

 36 38  0  0  0  0  0  0  0  0999 V2000
    3.3740   -9.2940    0.0000 C   0  0  0  0  0  0  0  0  0  0  0  0
    2.8330   -8.3590    0.0000 H   0  0  0  0  0  0  0  0  0  0  0  0
    4.8740   -9.2930    0.0000 C   0  0  0  0  0  0  0  0  0  0  0  0
    5.6250  -10.5920    0.0000 C   0  0  0  0  0  0  0  0  0  0  0  0
    4.8760  -11.8910    0.0000 C   0  0  0  0  0  0  0  0  0  0  0  0
    5.2650  -13.3400    0.0000 N   0  0  0  0  0  0  0  0  0  0  0  0
    6.5650  -14.0890    0.0000 N   0  0  0  0  0  0  0  0  0  0  0  0
    8.0140  -13.6990    0.0000 C   0  0  0  0  0  0  0  0  0  0  0  0
    8.7620  -12.3990    0.0000 C   0  0  0  0  0  0  0  0  0  0  0  0
   10.2620  -12.3980    0.0000 C   0  0  0  0  0  0  0  0  0  0  0  0
   11.0140  -13.6970    0.0000 C   0  0  0  0  0  0  0  0  0  0  0  0
   12.5140  -13.6950    0.0000 N   0  0  0  0  0  0  0  0  0  0  0  0
   13.2650  -14.9940    0.0000 C   0  0  0  0  0  0  0  0  0  0  0  0
   12.5160  -16.2930    0.0000 O   0  0  0  0  0  0  0  0  0  0  0  0
   14.7650  -14.9920    0.0000 C   0  0  0  0  0  0  0  0  0  0  0  0
   15.5140  -13.6930    0.0000 O   0  0  0  0  0  0  0  0  0  0  0  0
   16.4520  -13.8990    0.0000 H   0  0  0  0  0  0  0  0  0  0  0  0
   10.2650  -14.9960    0.0000 C   0  0  0  0  0  0  0  0  0  0  0  0
    8.7650  -14.9980    0.0000 C   0  0  0  0  0  0  0  0  0  0  0  0
    8.3730  -10.9510    0.0000 C   0  0  0  0  0  0  0  0  0  0  0  0
    7.0730  -10.2020    0.0000 C   0  0  0  0  0  0  0  0  0  0  0  0
    3.3760  -11.8930    0.0000 C   0  0  0  0  0  0  0  0  0  0  0  0
    2.6250  -10.5940    0.0000 C   0  0  0  0  0  0  0  0  0  0  0  0
    5.4130   -8.3570    0.0000 H   0  0  0  0  0  0  0  0  0  0  0  0
   10.8010  -11.4620    0.0000 H   0  0  0  0  0  0  0  0  0  0  0  0
   13.0180  -12.8200    0.0000 H   0  0  0  0  0  0  0  0  0  0  0  0
   15.0800  -15.5370   -0.8900 H   0  0  0  0  0  0  0  0  0  0  0  0
   15.0800  -15.5370    0.8900 H   0  0  0  0  0  0  0  0  0  0  0  0
   10.8060  -15.9310    0.0000 H   0  0  0  0  0  0  0  0  0  0  0  0
    8.2260  -15.9340    0.0000 H   0  0  0  0  0  0  0  0  0  0  0  0
    8.8720  -10.5680    0.8900 H   0  0  0  0  0  0  0  0  0  0  0  0
    8.8720  -10.5680   -0.8900 H   0  0  0  0  0  0  0  0  0  0  0  0
    7.1540   -9.5780   -0.8900 H   0  0  0  0  0  0  0  0  0  0  0  0
    7.1540   -9.5780    0.8900 H   0  0  0  0  0  0  0  0  0  0  0  0
    2.8370  -12.8290    0.0000 H   0  0  0  0  0  0  0  0  0  0  0  0
    1.5450  -10.5950    0.0000 H   0  0  0  0  0  0  0  0  0  0  0  0
  1  2  1  0  0  0  0
  1  3  1  0  0  0  0
  1 23  2  0  0  0  0
  3  4  2  0  0  0  0
  3 24  1  0  0  0  0
  4  5  1  0  0  0  0
  4 21  1  0  0  0  0
  5  6  1  0  0  0  0
  5 22  2  0  0  0  0
  6  7  2  0  0  0  0
  7  8  1  0  0  0  0
  8  9  1  0  0  0  0
  8 19  2  0  0  0  0
  9 10  2  0  0  0  0
  9 20  1  0  0  0  0
 10 11  1  0  0  0  0
 10 25  1  0  0  0  0
 11 12  1  0  0  0  0
 11 18  2  0  0  0  0
 12 13  1  0  0  0  0
 12 26  1  0  0  0  0
 13 14  2  0  0  0  0
 13 15  1  0  0  0  0
 15 16  1  0  0  0  0
 15 27  1  0  0  0  0
 15 28  1  0  0  0  0
 16 17  1  0  0  0  0
 18 19  1  0  0  0  0
 18 29  1  0  0  0  0
 19 30  1  0  0  0  0
 20 21  1  0  0  0  0
 20 31  1  0  0  0  0
 20 32  1  0  0  0  0
 21 33  1  0  0  0  0
 21 34  1  0  0  0  0
 22 23  1  0  0  0  0
 22 35  1  0  0  0  0
 23 36  1  0  0  0  0
M  END
