3pe1_3.pdb
  MOE2019           3D

 30 30  0  0  0  0  0  0  0  0999 V2000
   13.1180   -3.9270    0.0000 C   0  0  0  0  0  0  0  0  0  0  0  0
   14.3880   -4.7240    0.0000 C   0  0  0  0  0  0  0  0  0  0  0  0
   15.7140   -4.0220    0.0000 C   0  0  0  0  0  0  0  0  0  0  0  0
   16.9850   -4.8200    0.0000 C   0  0  0  0  0  0  0  0  0  0  0  0
   18.3100   -4.1180    0.0000 C   0  0  0  0  0  0  0  0  0  0  0  0
   19.5810   -4.9150    0.0000 C   0  0  0  0  0  0  0  0  0  0  0  0
   19.6830   -6.4110    0.0000 N   0  0  0  0  0  0  0  0  0  0  0  0
   21.1380   -6.7770    0.0000 N   0  0  0  0  0  0  0  0  0  0  0  0
   21.9350   -5.5060    0.0000 N   0  0  0  0  0  0  0  0  0  0  0  0
   23.4310   -5.4040    0.0000 C   0  0  0  0  0  0  0  0  0  0  0  0
   24.0910   -4.0570    0.0000 C   0  0  0  0  0  0  0  0  0  0  0  0
   23.2550   -2.8120    0.0000 O   0  0  0  0  0  0  0  0  0  0  0  0
   25.5880   -3.9550    0.0000 N   0  0  0  0  0  0  0  0  0  0  0  0
   20.9730   -4.3550    0.0000 C   0  0  0  0  0  0  0  0  0  0  0  0
   13.1410   -3.2980    0.8900 H   0  0  0  0  0  0  0  0  0  0  0  0
   12.2250   -4.5520    0.0000 H   0  0  0  0  0  0  0  0  0  0  0  0
   13.1410   -3.2980   -0.8900 H   0  0  0  0  0  0  0  0  0  0  0  0
   14.3650   -5.3530   -0.8900 H   0  0  0  0  0  0  0  0  0  0  0  0
   14.3650   -5.3530    0.8900 H   0  0  0  0  0  0  0  0  0  0  0  0
   15.7370   -3.3930    0.8900 H   0  0  0  0  0  0  0  0  0  0  0  0
   15.7370   -3.3930   -0.8900 H   0  0  0  0  0  0  0  0  0  0  0  0
   16.9620   -5.4490   -0.8900 H   0  0  0  0  0  0  0  0  0  0  0  0
   16.9620   -5.4490    0.8900 H   0  0  0  0  0  0  0  0  0  0  0  0
   18.3330   -3.4890    0.8900 H   0  0  0  0  0  0  0  0  0  0  0  0
   18.3330   -3.4890   -0.8900 H   0  0  0  0  0  0  0  0  0  0  0  0
   23.7820   -5.9260   -0.8900 H   0  0  0  0  0  0  0  0  0  0  0  0
   23.7820   -5.9260    0.8900 H   0  0  0  0  0  0  0  0  0  0  0  0
   26.0330   -3.0480    0.0000 H   0  0  0  0  0  0  0  0  0  0  0  0
   26.1510   -4.7930    0.0000 H   0  0  0  0  0  0  0  0  0  0  0  0
   21.2360   -3.3080    0.0000 H   0  0  0  0  0  0  0  0  0  0  0  0
  1  2  1  0  0  0  0
  1 15  1  0  0  0  0
  1 16  1  0  0  0  0
  1 17  1  0  0  0  0
  2  3  1  0  0  0  0
  2 18  1  0  0  0  0
  2 19  1  0  0  0  0
  3  4  1  0  0  0  0
  3 20  1  0  0  0  0
  3 21  1  0  0  0  0
  4  5  1  0  0  0  0
  4 22  1  0  0  0  0
  4 23  1  0  0  0  0
  5  6  1  0  0  0  0
  5 24  1  0  0  0  0
  5 25  1  0  0  0  0
  6  7  1  0  0  0  0
  6 14  2  0  0  0  0
  7  8  2  0  0  0  0
  8  9  1  0  0  0  0
  9 10  1  0  0  0  0
  9 14  1  0  0  0  0
 10 11  1  0  0  0  0
 10 26  1  0  0  0  0
 10 27  1  0  0  0  0
 11 12  2  0  0  0  0
 11 13  1  0  0  0  0
 13 28  1  0  0  0  0
 13 29  1  0  0  0  0
 14 30  1  0  0  0  0
M  END
