3pe1_1.pdb
  MOE2019           3D

 21 21  0  0  0  0  0  0  0  0999 V2000
   13.2300    3.5210    0.0000 C   0  0  0  0  0  0  0  0  0  0  0  0
   14.5580    2.8230    0.0000 C   0  0  0  0  0  0  0  0  0  0  0  0
   15.8260    3.6230    0.0000 C   0  0  0  0  0  0  0  0  0  0  0  0
   15.9250    5.1200    0.0000 N   0  0  0  0  0  0  0  0  0  0  0  0
   17.3790    5.4880    0.0000 N   0  0  0  0  0  0  0  0  0  0  0  0
   18.1790    4.2200    0.0000 N   0  0  0  0  0  0  0  0  0  0  0  0
   19.6760    4.1210    0.0000 C   0  0  0  0  0  0  0  0  0  0  0  0
   20.5090    5.3680    0.0000 C   0  0  0  0  0  0  0  0  0  0  0  0
   19.8460    6.7140    0.0000 O   0  0  0  0  0  0  0  0  0  0  0  0
   22.0060    5.2700    0.0000 N   0  0  0  0  0  0  0  0  0  0  0  0
   17.2200    3.0670    0.0000 C   0  0  0  0  0  0  0  0  0  0  0  0
   13.2050    4.1500    0.8900 H   0  0  0  0  0  0  0  0  0  0  0  0
   12.3870    2.8300    0.0000 H   0  0  0  0  0  0  0  0  0  0  0  0
   13.2050    4.1500   -0.8900 H   0  0  0  0  0  0  0  0  0  0  0  0
   14.5830    2.1940   -0.8900 H   0  0  0  0  0  0  0  0  0  0  0  0
   14.5830    2.1940    0.8900 H   0  0  0  0  0  0  0  0  0  0  0  0
   19.9540    3.5570   -0.8900 H   0  0  0  0  0  0  0  0  0  0  0  0
   19.9540    3.5570    0.8900 H   0  0  0  0  0  0  0  0  0  0  0  0
   22.5670    6.1100    0.0000 H   0  0  0  0  0  0  0  0  0  0  0  0
   22.4530    4.3640    0.0000 H   0  0  0  0  0  0  0  0  0  0  0  0
   17.4860    2.0200    0.0000 H   0  0  0  0  0  0  0  0  0  0  0  0
  1  2  1  0  0  0  0
  1 12  1  0  0  0  0
  1 13  1  0  0  0  0
  1 14  1  0  0  0  0
  2  3  1  0  0  0  0
  2 15  1  0  0  0  0
  2 16  1  0  0  0  0
  3  4  1  0  0  0  0
  3 11  2  0  0  0  0
  4  5  2  0  0  0  0
  5  6  1  0  0  0  0
  6  7  1  0  0  0  0
  6 11  1  0  0  0  0
  7  8  1  0  0  0  0
  7 17  1  0  0  0  0
  7 18  1  0  0  0  0
  8  9  2  0  0  0  0
  8 10  1  0  0  0  0
 10 19  1  0  0  0  0
 10 20  1  0  0  0  0
 11 21  1  0  0  0  0
M  END
