3ue4_1.pdb
  MOE2019           3D

 22 21  0  0  0  0  0  0  0  0999 V2000
   21.7500   -3.1080    0.0000 C   0  0  0  0  0  0  0  0  0  0  0  0
   22.5000   -1.8090    0.0000 C   0  0  0  0  0  0  0  0  0  0  0  0
   24.0000   -1.8090    0.0000 O   0  0  0  0  0  0  0  0  0  0  0  0
   24.7500   -0.5100    0.0000 C   0  0  0  0  0  0  0  0  0  0  0  0
   26.2500   -0.5100    0.0000 C   0  0  0  0  0  0  0  0  0  0  0  0
   27.0000    0.7890    0.0000 O   0  0  0  0  0  0  0  0  0  0  0  0
   28.5000    0.7890    0.0000 C   0  0  0  0  0  0  0  0  0  0  0  0
   29.2500    2.0880    0.0000 C   0  0  0  0  0  0  0  0  0  0  0  0
   22.0650   -3.6530   -0.8900 H   0  0  0  0  0  0  0  0  0  0  0  0
   22.0650   -3.6530    0.8900 H   0  0  0  0  0  0  0  0  0  0  0  0
   20.6680   -2.9740    0.0000 H   0  0  0  0  0  0  0  0  0  0  0  0
   22.1850   -1.2640    0.8900 H   0  0  0  0  0  0  0  0  0  0  0  0
   22.1850   -1.2640   -0.8900 H   0  0  0  0  0  0  0  0  0  0  0  0
   24.4350    0.0350    0.8900 H   0  0  0  0  0  0  0  0  0  0  0  0
   24.4350    0.0350   -0.8900 H   0  0  0  0  0  0  0  0  0  0  0  0
   26.5650   -1.0550   -0.8900 H   0  0  0  0  0  0  0  0  0  0  0  0
   26.5650   -1.0550    0.8900 H   0  0  0  0  0  0  0  0  0  0  0  0
   28.8150    0.2440   -0.8900 H   0  0  0  0  0  0  0  0  0  0  0  0
   28.8150    0.2440    0.8900 H   0  0  0  0  0  0  0  0  0  0  0  0
   28.9350    2.6330    0.8900 H   0  0  0  0  0  0  0  0  0  0  0  0
   30.3320    1.9540    0.0000 H   0  0  0  0  0  0  0  0  0  0  0  0
   28.9350    2.6330   -0.8900 H   0  0  0  0  0  0  0  0  0  0  0  0
  1  2  1  0  0  0  0
  1  9  1  0  0  0  0
  1 10  1  0  0  0  0
  1 11  1  0  0  0  0
  2  3  1  0  0  0  0
  2 12  1  0  0  0  0
  2 13  1  0  0  0  0
  3  4  1  0  0  0  0
  4  5  1  0  0  0  0
  4 14  1  0  0  0  0
  4 15  1  0  0  0  0
  5  6  1  0  0  0  0
  5 16  1  0  0  0  0
  5 17  1  0  0  0  0
  6  7  1  0  0  0  0
  7  8  1  0  0  0  0
  7 18  1  0  0  0  0
  7 19  1  0  0  0  0
  8 20  1  0  0  0  0
  8 21  1  0  0  0  0
  8 22  1  0  0  0  0
M  END
