4bjx_3.pdb
  MOE2019           3D

 30 29  0  0  0  0  0  0  0  0999 V2000
   14.6930   10.2140    0.0000 C   0  0  0  0  0  0  0  0  0  0  0  0
   15.9920    9.4640    0.0000 C   0  0  0  0  0  0  0  0  0  0  0  0
   17.2910   10.2140    0.0000 O   0  0  0  0  0  0  0  0  0  0  0  0
   18.5900    9.4640    0.0000 C   0  0  0  0  0  0  0  0  0  0  0  0
   19.8890   10.2140    0.0000 C   0  0  0  0  0  0  0  0  0  0  0  0
   21.1880    9.4640    0.0000 O   0  0  0  0  0  0  0  0  0  0  0  0
   22.4870   10.2140    0.0000 C   0  0  0  0  0  0  0  0  0  0  0  0
   23.7860    9.4640    0.0000 C   0  0  0  0  0  0  0  0  0  0  0  0
   25.0850   10.2140    0.0000 O   0  0  0  0  0  0  0  0  0  0  0  0
   26.3840    9.4640    0.0000 C   0  0  0  0  0  0  0  0  0  0  0  0
   27.6830   10.2140    0.0000 C   0  0  0  0  0  0  0  0  0  0  0  0
   28.9820    9.4640    0.0000 O   0  0  0  0  0  0  0  0  0  0  0  0
   29.6910   10.1110    0.0000 H   0  0  0  0  0  0  0  0  0  0  0  0
   14.6930   10.8430   -0.8900 H   0  0  0  0  0  0  0  0  0  0  0  0
   14.6930   10.8430    0.8900 H   0  0  0  0  0  0  0  0  0  0  0  0
   13.8230    9.5570    0.0000 H   0  0  0  0  0  0  0  0  0  0  0  0
   15.9920    8.8350   -0.8900 H   0  0  0  0  0  0  0  0  0  0  0  0
   15.9920    8.8350    0.8900 H   0  0  0  0  0  0  0  0  0  0  0  0
   18.5900    8.8350    0.8900 H   0  0  0  0  0  0  0  0  0  0  0  0
   18.5900    8.8350   -0.8900 H   0  0  0  0  0  0  0  0  0  0  0  0
   19.8890   10.8430    0.8900 H   0  0  0  0  0  0  0  0  0  0  0  0
   19.8890   10.8430   -0.8900 H   0  0  0  0  0  0  0  0  0  0  0  0
   22.4870   10.8430   -0.8900 H   0  0  0  0  0  0  0  0  0  0  0  0
   22.4870   10.8430    0.8900 H   0  0  0  0  0  0  0  0  0  0  0  0
   23.7860    8.8350   -0.8900 H   0  0  0  0  0  0  0  0  0  0  0  0
   23.7860    8.8350    0.8900 H   0  0  0  0  0  0  0  0  0  0  0  0
   26.3840    8.8350    0.8900 H   0  0  0  0  0  0  0  0  0  0  0  0
   26.3840    8.8350   -0.8900 H   0  0  0  0  0  0  0  0  0  0  0  0
   27.6830   10.8430    0.8900 H   0  0  0  0  0  0  0  0  0  0  0  0
   27.6830   10.8430   -0.8900 H   0  0  0  0  0  0  0  0  0  0  0  0
  1  2  1  0  0  0  0
  1 14  1  0  0  0  0
  1 15  1  0  0  0  0
  1 16  1  0  0  0  0
  2  3  1  0  0  0  0
  2 17  1  0  0  0  0
  2 18  1  0  0  0  0
  3  4  1  0  0  0  0
  4  5  1  0  0  0  0
  4 19  1  0  0  0  0
  4 20  1  0  0  0  0
  5  6  1  0  0  0  0
  5 21  1  0  0  0  0
  5 22  1  0  0  0  0
  6  7  1  0  0  0  0
  7  8  1  0  0  0  0
  7 23  1  0  0  0  0
  7 24  1  0  0  0  0
  8  9  1  0  0  0  0
  8 25  1  0  0  0  0
  8 26  1  0  0  0  0
  9 10  1  0  0  0  0
 10 11  1  0  0  0  0
 10 27  1  0  0  0  0
 10 28  1  0  0  0  0
 11 12  1  0  0  0  0
 11 29  1  0  0  0  0
 11 30  1  0  0  0  0
 12 13  1  0  0  0  0
M  END
