4ci3_10.pdb
  MOE2019           3D

 28 27  0  0  0  0  0  0  0  0999 V2000
    0.2610   -0.9350    0.0000 O   0  0  0  0  0  0  0  0  0  0  0  0
    1.5600   -0.1850    0.0000 C   0  0  0  0  0  0  0  0  0  0  0  0
    2.8590   -0.9350    0.0000 C   0  0  0  0  0  0  0  0  0  0  0  0
    4.1580   -0.1850    0.0000 O   0  0  0  0  0  0  0  0  0  0  0  0
    5.4570   -0.9350    0.0000 C   0  0  0  0  0  0  0  0  0  0  0  0
    6.7560   -0.1850    0.0000 C   0  0  0  0  0  0  0  0  0  0  0  0
    8.0550   -0.9350    0.0000 C   0  0  0  0  0  0  0  0  0  0  0  0
   -1.0380   -0.1850    0.0000 C   0  0  0  0  0  0  0  0  0  0  0  0
   -2.3370   -0.9350    0.0000 C   0  0  0  0  0  0  0  0  0  0  0  0
   -3.6360   -0.1850    0.0000 C   0  0  0  0  0  0  0  0  0  0  0  0
    1.5600    0.4440    0.8900 H   0  0  0  0  0  0  0  0  0  0  0  0
    1.5600    0.4440   -0.8900 H   0  0  0  0  0  0  0  0  0  0  0  0
    2.8590   -1.5640   -0.8900 H   0  0  0  0  0  0  0  0  0  0  0  0
    2.8590   -1.5640    0.8900 H   0  0  0  0  0  0  0  0  0  0  0  0
    5.4570   -1.5640   -0.8900 H   0  0  0  0  0  0  0  0  0  0  0  0
    5.4570   -1.5640    0.8900 H   0  0  0  0  0  0  0  0  0  0  0  0
    6.7560    0.4440    0.8900 H   0  0  0  0  0  0  0  0  0  0  0  0
    6.7560    0.4440   -0.8900 H   0  0  0  0  0  0  0  0  0  0  0  0
    8.0550   -1.5640   -0.8900 H   0  0  0  0  0  0  0  0  0  0  0  0
    8.9250   -0.2780    0.0000 H   0  0  0  0  0  0  0  0  0  0  0  0
    8.0550   -1.5640    0.8900 H   0  0  0  0  0  0  0  0  0  0  0  0
   -1.0380    0.4440   -0.8900 H   0  0  0  0  0  0  0  0  0  0  0  0
   -1.0380    0.4440    0.8900 H   0  0  0  0  0  0  0  0  0  0  0  0
   -2.3370   -1.5640    0.8900 H   0  0  0  0  0  0  0  0  0  0  0  0
   -2.3370   -1.5640   -0.8900 H   0  0  0  0  0  0  0  0  0  0  0  0
   -3.6360    0.4440   -0.8900 H   0  0  0  0  0  0  0  0  0  0  0  0
   -4.5060   -0.8420    0.0000 H   0  0  0  0  0  0  0  0  0  0  0  0
   -3.6360    0.4440    0.8900 H   0  0  0  0  0  0  0  0  0  0  0  0
  1  2  1  0  0  0  0
  1  8  1  0  0  0  0
  2  3  1  0  0  0  0
  2 11  1  0  0  0  0
  2 12  1  0  0  0  0
  3  4  1  0  0  0  0
  3 13  1  0  0  0  0
  3 14  1  0  0  0  0
  4  5  1  0  0  0  0
  5  6  1  0  0  0  0
  5 15  1  0  0  0  0
  5 16  1  0  0  0  0
  6  7  1  0  0  0  0
  6 17  1  0  0  0  0
  6 18  1  0  0  0  0
  7 19  1  0  0  0  0
  7 20  1  0  0  0  0
  7 21  1  0  0  0  0
  8  9  1  0  0  0  0
  8 22  1  0  0  0  0
  8 23  1  0  0  0  0
  9 10  1  0  0  0  0
  9 24  1  0  0  0  0
  9 25  1  0  0  0  0
 10 26  1  0  0  0  0
 10 27  1  0  0  0  0
 10 28  1  0  0  0  0
M  END
