4ci3_6.pdb
  MOE2019           3D

 53 52  0  0  0  0  0  0  0  0999 V2000
    1.6620   -9.0930    0.0000 C   0  0  0  0  0  0  0  0  0  0  0  0
    2.9610   -8.3430    0.0000 C   0  0  0  0  0  0  0  0  0  0  0  0
    4.2600   -9.0930    0.0000 C   0  0  0  0  0  0  0  0  0  0  0  0
    5.5590   -8.3430    0.0000 C   0  0  0  0  0  0  0  0  0  0  0  0
    6.8580   -9.0930    0.0000 O   0  0  0  0  0  0  0  0  0  0  0  0
    8.1570   -8.3430    0.0000 C   0  0  0  0  0  0  0  0  0  0  0  0
    9.4560   -9.0930    0.0000 C   0  0  0  0  0  0  0  0  0  0  0  0
   10.7550   -8.3430    0.0000 C   0  0  0  0  0  0  0  0  0  0  0  0
   12.0540   -9.0930    0.0000 C   0  0  0  0  0  0  0  0  0  0  0  0
   13.3530   -8.3430    0.0000 O   0  0  0  0  0  0  0  0  0  0  0  0
   14.6520   -9.0930    0.0000 C   0  0  0  0  0  0  0  0  0  0  0  0
   15.9510   -8.3430    0.0000 C   0  0  0  0  0  0  0  0  0  0  0  0
   17.2500   -9.0930    0.0000 C   0  0  0  0  0  0  0  0  0  0  0  0
   18.5490   -8.3430    0.0000 C   0  0  0  0  0  0  0  0  0  0  0  0
   19.8480   -9.0930    0.0000 O   0  0  0  0  0  0  0  0  0  0  0  0
   21.1470   -8.3430    0.0000 C   0  0  0  0  0  0  0  0  0  0  0  0
   21.1470   -6.8430    0.0000 C   0  0  0  0  0  0  0  0  0  0  0  0
   22.4460   -6.0930    0.0000 C   0  0  0  0  0  0  0  0  0  0  0  0
   22.4460   -4.5930    0.0000 C   0  0  0  0  0  0  0  0  0  0  0  0
    1.6620   -9.7220    0.8900 H   0  0  0  0  0  0  0  0  0  0  0  0
    1.6620   -9.7220   -0.8900 H   0  0  0  0  0  0  0  0  0  0  0  0
    0.7920   -8.4360    0.0000 H   0  0  0  0  0  0  0  0  0  0  0  0
    2.9610   -7.7140    0.8900 H   0  0  0  0  0  0  0  0  0  0  0  0
    2.9610   -7.7140   -0.8900 H   0  0  0  0  0  0  0  0  0  0  0  0
    4.2600   -9.7220   -0.8900 H   0  0  0  0  0  0  0  0  0  0  0  0
    4.2600   -9.7220    0.8900 H   0  0  0  0  0  0  0  0  0  0  0  0
    5.5590   -7.7140    0.8900 H   0  0  0  0  0  0  0  0  0  0  0  0
    5.5590   -7.7140   -0.8900 H   0  0  0  0  0  0  0  0  0  0  0  0
    8.1570   -7.7140   -0.8900 H   0  0  0  0  0  0  0  0  0  0  0  0
    8.1570   -7.7140    0.8900 H   0  0  0  0  0  0  0  0  0  0  0  0
    9.4560   -9.7220    0.8900 H   0  0  0  0  0  0  0  0  0  0  0  0
    9.4560   -9.7220   -0.8900 H   0  0  0  0  0  0  0  0  0  0  0  0
   10.7550   -7.7140    0.8900 H   0  0  0  0  0  0  0  0  0  0  0  0
   10.7550   -7.7140   -0.8900 H   0  0  0  0  0  0  0  0  0  0  0  0
   12.0540   -9.7220   -0.8900 H   0  0  0  0  0  0  0  0  0  0  0  0
   12.0540   -9.7220    0.8900 H   0  0  0  0  0  0  0  0  0  0  0  0
   14.6520   -9.7220    0.8900 H   0  0  0  0  0  0  0  0  0  0  0  0
   14.6520   -9.7220   -0.8900 H   0  0  0  0  0  0  0  0  0  0  0  0
   15.9510   -7.7140   -0.8900 H   0  0  0  0  0  0  0  0  0  0  0  0
   15.9510   -7.7140    0.8900 H   0  0  0  0  0  0  0  0  0  0  0  0
   17.2500   -9.7220   -0.8900 H   0  0  0  0  0  0  0  0  0  0  0  0
   17.2500   -9.7220    0.8900 H   0  0  0  0  0  0  0  0  0  0  0  0
   18.5490   -7.7140    0.8900 H   0  0  0  0  0  0  0  0  0  0  0  0
   18.5490   -7.7140   -0.8900 H   0  0  0  0  0  0  0  0  0  0  0  0
   21.6920   -8.6580    0.8900 H   0  0  0  0  0  0  0  0  0  0  0  0
   21.6920   -8.6580   -0.8900 H   0  0  0  0  0  0  0  0  0  0  0  0
   20.6020   -6.5280   -0.8900 H   0  0  0  0  0  0  0  0  0  0  0  0
   20.6020   -6.5280    0.8900 H   0  0  0  0  0  0  0  0  0  0  0  0
   22.9910   -6.4080   -0.8900 H   0  0  0  0  0  0  0  0  0  0  0  0
   22.9910   -6.4080    0.8900 H   0  0  0  0  0  0  0  0  0  0  0  0
   21.9010   -4.2780    0.8900 H   0  0  0  0  0  0  0  0  0  0  0  0
   23.4500   -4.1690    0.0000 H   0  0  0  0  0  0  0  0  0  0  0  0
   21.9010   -4.2780   -0.8900 H   0  0  0  0  0  0  0  0  0  0  0  0
  1  2  1  0  0  0  0
  1 20  1  0  0  0  0
  1 21  1  0  0  0  0
  1 22  1  0  0  0  0
  2  3  1  0  0  0  0
  2 23  1  0  0  0  0
  2 24  1  0  0  0  0
  3  4  1  0  0  0  0
  3 25  1  0  0  0  0
  3 26  1  0  0  0  0
  4  5  1  0  0  0  0
  4 27  1  0  0  0  0
  4 28  1  0  0  0  0
  5  6  1  0  0  0  0
  6  7  1  0  0  0  0
  6 29  1  0  0  0  0
  6 30  1  0  0  0  0
  7  8  1  0  0  0  0
  7 31  1  0  0  0  0
  7 32  1  0  0  0  0
  8  9  1  0  0  0  0
  8 33  1  0  0  0  0
  8 34  1  0  0  0  0
  9 10  1  0  0  0  0
  9 35  1  0  0  0  0
  9 36  1  0  0  0  0
 10 11  1  0  0  0  0
 11 12  1  0  0  0  0
 11 37  1  0  0  0  0
 11 38  1  0  0  0  0
 12 13  1  0  0  0  0
 12 39  1  0  0  0  0
 12 40  1  0  0  0  0
 13 14  1  0  0  0  0
 13 41  1  0  0  0  0
 13 42  1  0  0  0  0
 14 15  1  0  0  0  0
 14 43  1  0  0  0  0
 14 44  1  0  0  0  0
 15 16  1  0  0  0  0
 16 17  1  0  0  0  0
 16 45  1  0  0  0  0
 16 46  1  0  0  0  0
 17 18  1  0  0  0  0
 17 47  1  0  0  0  0
 17 48  1  0  0  0  0
 18 19  1  0  0  0  0
 18 49  1  0  0  0  0
 18 50  1  0  0  0  0
 19 51  1  0  0  0  0
 19 52  1  0  0  0  0
 19 53  1  0  0  0  0
M  END
