4ci3_12.pdb
  MOE2019           3D

 35 34  0  0  0  0  0  0  0  0999 V2000
    0.9040   -3.3730    0.0000 O   0  0  0  0  0  0  0  0  0  0  0  0
   -0.3950   -2.6230    0.0000 C   0  0  0  0  0  0  0  0  0  0  0  0
   -1.6940   -3.3730    0.0000 C   0  0  0  0  0  0  0  0  0  0  0  0
   -2.9930   -2.6230    0.0000 O   0  0  0  0  0  0  0  0  0  0  0  0
   -4.2920   -3.3730    0.0000 C   0  0  0  0  0  0  0  0  0  0  0  0
   -5.5920   -2.6230    0.0000 C   0  0  0  0  0  0  0  0  0  0  0  0
   -6.8910   -3.3730    0.0000 C   0  0  0  0  0  0  0  0  0  0  0  0
    2.2030   -2.6230    0.0000 C   0  0  0  0  0  0  0  0  0  0  0  0
    3.5020   -3.3730    0.0000 C   0  0  0  0  0  0  0  0  0  0  0  0
    4.8010   -2.6230    0.0000 O   0  0  0  0  0  0  0  0  0  0  0  0
    6.1000   -3.3730    0.0000 C   0  0  0  0  0  0  0  0  0  0  0  0
    7.3990   -2.6230    0.0000 C   0  0  0  0  0  0  0  0  0  0  0  0
    8.6980   -3.3730    0.0000 C   0  0  0  0  0  0  0  0  0  0  0  0
   -0.3950   -1.9940   -0.8900 H   0  0  0  0  0  0  0  0  0  0  0  0
   -0.3950   -1.9940    0.8900 H   0  0  0  0  0  0  0  0  0  0  0  0
   -1.6940   -4.0020    0.8900 H   0  0  0  0  0  0  0  0  0  0  0  0
   -1.6940   -4.0020   -0.8900 H   0  0  0  0  0  0  0  0  0  0  0  0
   -4.2920   -4.0020    0.8900 H   0  0  0  0  0  0  0  0  0  0  0  0
   -4.2920   -4.0020   -0.8900 H   0  0  0  0  0  0  0  0  0  0  0  0
   -5.5920   -1.9940   -0.8900 H   0  0  0  0  0  0  0  0  0  0  0  0
   -5.5920   -1.9940    0.8900 H   0  0  0  0  0  0  0  0  0  0  0  0
   -6.8910   -4.0020    0.8900 H   0  0  0  0  0  0  0  0  0  0  0  0
   -7.7610   -2.7160    0.0000 H   0  0  0  0  0  0  0  0  0  0  0  0
   -6.8910   -4.0020   -0.8900 H   0  0  0  0  0  0  0  0  0  0  0  0
    2.2030   -1.9940    0.8900 H   0  0  0  0  0  0  0  0  0  0  0  0
    2.2030   -1.9940   -0.8900 H   0  0  0  0  0  0  0  0  0  0  0  0
    3.5020   -4.0020   -0.8900 H   0  0  0  0  0  0  0  0  0  0  0  0
    3.5020   -4.0020    0.8900 H   0  0  0  0  0  0  0  0  0  0  0  0
    6.1000   -4.0020   -0.8900 H   0  0  0  0  0  0  0  0  0  0  0  0
    6.1000   -4.0020    0.8900 H   0  0  0  0  0  0  0  0  0  0  0  0
    7.3990   -1.9940    0.8900 H   0  0  0  0  0  0  0  0  0  0  0  0
    7.3990   -1.9940   -0.8900 H   0  0  0  0  0  0  0  0  0  0  0  0
    8.6980   -4.0020   -0.8900 H   0  0  0  0  0  0  0  0  0  0  0  0
    9.5680   -2.7160    0.0000 H   0  0  0  0  0  0  0  0  0  0  0  0
    8.6980   -4.0020    0.8900 H   0  0  0  0  0  0  0  0  0  0  0  0
  1  2  1  0  0  0  0
  1  8  1  0  0  0  0
  2  3  1  0  0  0  0
  2 14  1  0  0  0  0
  2 15  1  0  0  0  0
  3  4  1  0  0  0  0
  3 16  1  0  0  0  0
  3 17  1  0  0  0  0
  4  5  1  0  0  0  0
  5  6  1  0  0  0  0
  5 18  1  0  0  0  0
  5 19  1  0  0  0  0
  6  7  1  0  0  0  0
  6 20  1  0  0  0  0
  6 21  1  0  0  0  0
  7 22  1  0  0  0  0
  7 23  1  0  0  0  0
  7 24  1  0  0  0  0
  8  9  1  0  0  0  0
  8 25  1  0  0  0  0
  8 26  1  0  0  0  0
  9 10  1  0  0  0  0
  9 27  1  0  0  0  0
  9 28  1  0  0  0  0
 10 11  1  0  0  0  0
 11 12  1  0  0  0  0
 11 29  1  0  0  0  0
 11 30  1  0  0  0  0
 12 13  1  0  0  0  0
 12 31  1  0  0  0  0
 12 32  1  0  0  0  0
 13 33  1  0  0  0  0
 13 34  1  0  0  0  0
 13 35  1  0  0  0  0
M  END
