4ci3_32.pdb
  MOE2019           3D

 21 20  0  0  0  0  0  0  0  0999 V2000
   -0.2820   -9.8370    0.0000 C   0  0  0  0  0  0  0  0  0  0  0  0
    0.4680   -8.5380    0.0000 C   0  0  0  0  0  0  0  0  0  0  0  0
    1.9680   -8.5380    0.0000 C   0  0  0  0  0  0  0  0  0  0  0  0
    2.7180   -7.2390    0.0000 C   0  0  0  0  0  0  0  0  0  0  0  0
    1.9680   -5.9390    0.0000 O   0  0  0  0  0  0  0  0  0  0  0  0
    4.2180   -7.2390    0.0000 N   0  0  0  0  0  0  0  0  0  0  0  0
    4.9680   -5.9390    0.0000 C   0  0  0  0  0  0  0  0  0  0  0  0
    6.4680   -5.9390    0.0000 C   0  0  0  0  0  0  0  0  0  0  0  0
    0.0330  -10.3820    0.8900 H   0  0  0  0  0  0  0  0  0  0  0  0
    0.0330  -10.3820   -0.8900 H   0  0  0  0  0  0  0  0  0  0  0  0
   -1.3640   -9.7030    0.0000 H   0  0  0  0  0  0  0  0  0  0  0  0
    0.1530   -7.9930   -0.8900 H   0  0  0  0  0  0  0  0  0  0  0  0
    0.1530   -7.9930    0.8900 H   0  0  0  0  0  0  0  0  0  0  0  0
    2.2830   -9.0830   -0.8900 H   0  0  0  0  0  0  0  0  0  0  0  0
    2.2830   -9.0830    0.8900 H   0  0  0  0  0  0  0  0  0  0  0  0
    4.7230   -8.1140    0.0000 H   0  0  0  0  0  0  0  0  0  0  0  0
    4.6530   -5.3940   -0.8900 H   0  0  0  0  0  0  0  0  0  0  0  0
    4.6530   -5.3940    0.8900 H   0  0  0  0  0  0  0  0  0  0  0  0
    6.7830   -6.4840   -0.8900 H   0  0  0  0  0  0  0  0  0  0  0  0
    6.8920   -4.9350    0.0000 H   0  0  0  0  0  0  0  0  0  0  0  0
    6.7830   -6.4840    0.8900 H   0  0  0  0  0  0  0  0  0  0  0  0
  1  2  1  0  0  0  0
  1  9  1  0  0  0  0
  1 10  1  0  0  0  0
  1 11  1  0  0  0  0
  2  3  1  0  0  0  0
  2 12  1  0  0  0  0
  2 13  1  0  0  0  0
  3  4  1  0  0  0  0
  3 14  1  0  0  0  0
  3 15  1  0  0  0  0
  4  5  2  0  0  0  0
  4  6  1  0  0  0  0
  6  7  1  0  0  0  0
  6 16  1  0  0  0  0
  7  8  1  0  0  0  0
  7 17  1  0  0  0  0
  7 18  1  0  0  0  0
  8 19  1  0  0  0  0
  8 20  1  0  0  0  0
  8 21  1  0  0  0  0
M  END
