4ci3_19.pdb
  MOE2019           3D

 18 17  0  0  0  0  0  0  0  0999 V2000
    1.7550   -1.0750    0.0000 C   0  0  0  0  0  0  0  0  0  0  0  0
    0.4560   -0.3250    0.0000 C   0  0  0  0  0  0  0  0  0  0  0  0
   -0.8430   -1.0750    0.0000 C   0  0  0  0  0  0  0  0  0  0  0  0
   -2.1420   -0.3250    0.0000 C   0  0  0  0  0  0  0  0  0  0  0  0
   -3.4410   -1.0750    0.0000 C   0  0  0  0  0  0  0  0  0  0  0  0
   -3.4410   -2.5750    0.0000 O   0  0  0  0  0  0  0  0  0  0  0  0
   -4.7400   -0.3250    0.0000 N   0  0  0  0  0  0  0  0  0  0  0  0
    1.7550   -1.7040   -0.8900 H   0  0  0  0  0  0  0  0  0  0  0  0
    1.7550   -1.7040    0.8900 H   0  0  0  0  0  0  0  0  0  0  0  0
    2.6250   -0.4180    0.0000 H   0  0  0  0  0  0  0  0  0  0  0  0
    0.4560    0.3040   -0.8900 H   0  0  0  0  0  0  0  0  0  0  0  0
    0.4560    0.3040    0.8900 H   0  0  0  0  0  0  0  0  0  0  0  0
   -0.8430   -1.7040    0.8900 H   0  0  0  0  0  0  0  0  0  0  0  0
   -0.8430   -1.7040   -0.8900 H   0  0  0  0  0  0  0  0  0  0  0  0
   -2.1420    0.3040   -0.8900 H   0  0  0  0  0  0  0  0  0  0  0  0
   -2.1420    0.3040    0.8900 H   0  0  0  0  0  0  0  0  0  0  0  0
   -4.7400    0.6850    0.0000 H   0  0  0  0  0  0  0  0  0  0  0  0
   -5.6150   -0.8300    0.0000 H   0  0  0  0  0  0  0  0  0  0  0  0
  1  2  1  0  0  0  0
  1  8  1  0  0  0  0
  1  9  1  0  0  0  0
  1 10  1  0  0  0  0
  2  3  1  0  0  0  0
  2 11  1  0  0  0  0
  2 12  1  0  0  0  0
  3  4  1  0  0  0  0
  3 13  1  0  0  0  0
  3 14  1  0  0  0  0
  4  5  1  0  0  0  0
  4 15  1  0  0  0  0
  4 16  1  0  0  0  0
  5  6  2  0  0  0  0
  5  7  1  0  0  0  0
  7 17  1  0  0  0  0
  7 18  1  0  0  0  0
M  END
