4ci3_24.pdb
  MOE2019           3D

 51 50  0  0  0  0  0  0  0  0999 V2000
   -2.0690    6.1670    0.0000 O   0  0  0  0  0  0  0  0  0  0  0  0
   -2.7780    6.8140    0.0000 H   0  0  0  0  0  0  0  0  0  0  0  0
   -0.7700    6.9170    0.0000 C   0  0  0  0  0  0  0  0  0  0  0  0
    0.5290    6.1670    0.0000 C   0  0  0  0  0  0  0  0  0  0  0  0
    1.8280    6.9170    0.0000 O   0  0  0  0  0  0  0  0  0  0  0  0
    3.1280    6.1670    0.0000 C   0  0  0  0  0  0  0  0  0  0  0  0
    4.4270    6.9170    0.0000 C   0  0  0  0  0  0  0  0  0  0  0  0
    5.7260    6.1670    0.0000 O   0  0  0  0  0  0  0  0  0  0  0  0
    7.0250    6.9170    0.0000 C   0  0  0  0  0  0  0  0  0  0  0  0
    8.3240    6.1670    0.0000 C   0  0  0  0  0  0  0  0  0  0  0  0
    9.6230    6.9170    0.0000 O   0  0  0  0  0  0  0  0  0  0  0  0
   10.9220    6.1670    0.0000 C   0  0  0  0  0  0  0  0  0  0  0  0
   12.2210    6.9170    0.0000 C   0  0  0  0  0  0  0  0  0  0  0  0
   13.5200    6.1670    0.0000 O   0  0  0  0  0  0  0  0  0  0  0  0
   14.8190    6.9170    0.0000 C   0  0  0  0  0  0  0  0  0  0  0  0
   16.1180    6.1670    0.0000 C   0  0  0  0  0  0  0  0  0  0  0  0
   17.4170    6.9170    0.0000 O   0  0  0  0  0  0  0  0  0  0  0  0
   18.7160    6.1670    0.0000 C   0  0  0  0  0  0  0  0  0  0  0  0
   20.0150    6.9170    0.0000 C   0  0  0  0  0  0  0  0  0  0  0  0
   21.3140    6.1670    0.0000 O   0  0  0  0  0  0  0  0  0  0  0  0
   20.0150    8.4170    0.0000 N   0  0  0  0  0  0  0  0  0  0  0  0
   21.3140    9.1670    0.0000 C   0  0  0  0  0  0  0  0  0  0  0  0
   21.3140   10.6670    0.0000 C   0  0  0  0  0  0  0  0  0  0  0  0
   -0.7700    7.5460   -0.8900 H   0  0  0  0  0  0  0  0  0  0  0  0
   -0.7700    7.5460    0.8900 H   0  0  0  0  0  0  0  0  0  0  0  0
    0.5290    5.5380   -0.8900 H   0  0  0  0  0  0  0  0  0  0  0  0
    0.5290    5.5380    0.8900 H   0  0  0  0  0  0  0  0  0  0  0  0
    3.1280    5.5380    0.8900 H   0  0  0  0  0  0  0  0  0  0  0  0
    3.1280    5.5380   -0.8900 H   0  0  0  0  0  0  0  0  0  0  0  0
    4.4270    7.5460    0.8900 H   0  0  0  0  0  0  0  0  0  0  0  0
    4.4270    7.5460   -0.8900 H   0  0  0  0  0  0  0  0  0  0  0  0
    7.0250    7.5460   -0.8900 H   0  0  0  0  0  0  0  0  0  0  0  0
    7.0250    7.5460    0.8900 H   0  0  0  0  0  0  0  0  0  0  0  0
    8.3240    5.5380   -0.8900 H   0  0  0  0  0  0  0  0  0  0  0  0
    8.3240    5.5380    0.8900 H   0  0  0  0  0  0  0  0  0  0  0  0
   10.9220    5.5380    0.8900 H   0  0  0  0  0  0  0  0  0  0  0  0
   10.9220    5.5380   -0.8900 H   0  0  0  0  0  0  0  0  0  0  0  0
   12.2210    7.5460    0.8900 H   0  0  0  0  0  0  0  0  0  0  0  0
   12.2210    7.5460   -0.8900 H   0  0  0  0  0  0  0  0  0  0  0  0
   14.8190    7.5460   -0.8900 H   0  0  0  0  0  0  0  0  0  0  0  0
   14.8190    7.5460    0.8900 H   0  0  0  0  0  0  0  0  0  0  0  0
   16.1180    5.5380   -0.8900 H   0  0  0  0  0  0  0  0  0  0  0  0
   16.1180    5.5380    0.8900 H   0  0  0  0  0  0  0  0  0  0  0  0
   18.7160    5.5380    0.8900 H   0  0  0  0  0  0  0  0  0  0  0  0
   18.7160    5.5380   -0.8900 H   0  0  0  0  0  0  0  0  0  0  0  0
   19.1400    8.9220    0.0000 H   0  0  0  0  0  0  0  0  0  0  0  0
   21.8590    8.8520    0.8900 H   0  0  0  0  0  0  0  0  0  0  0  0
   21.8590    8.8520   -0.8900 H   0  0  0  0  0  0  0  0  0  0  0  0
   20.7690   10.9820    0.8900 H   0  0  0  0  0  0  0  0  0  0  0  0
   22.3180   11.0910    0.0000 H   0  0  0  0  0  0  0  0  0  0  0  0
   20.7690   10.9820   -0.8900 H   0  0  0  0  0  0  0  0  0  0  0  0
  1  2  1  0  0  0  0
  1  3  1  0  0  0  0
  3  4  1  0  0  0  0
  3 24  1  0  0  0  0
  3 25  1  0  0  0  0
  4  5  1  0  0  0  0
  4 26  1  0  0  0  0
  4 27  1  0  0  0  0
  5  6  1  0  0  0  0
  6  7  1  0  0  0  0
  6 28  1  0  0  0  0
  6 29  1  0  0  0  0
  7  8  1  0  0  0  0
  7 30  1  0  0  0  0
  7 31  1  0  0  0  0
  8  9  1  0  0  0  0
  9 10  1  0  0  0  0
  9 32  1  0  0  0  0
  9 33  1  0  0  0  0
 10 11  1  0  0  0  0
 10 34  1  0  0  0  0
 10 35  1  0  0  0  0
 11 12  1  0  0  0  0
 12 13  1  0  0  0  0
 12 36  1  0  0  0  0
 12 37  1  0  0  0  0
 13 14  1  0  0  0  0
 13 38  1  0  0  0  0
 13 39  1  0  0  0  0
 14 15  1  0  0  0  0
 15 16  1  0  0  0  0
 15 40  1  0  0  0  0
 15 41  1  0  0  0  0
 16 17  1  0  0  0  0
 16 42  1  0  0  0  0
 16 43  1  0  0  0  0
 17 18  1  0  0  0  0
 18 19  1  0  0  0  0
 18 44  1  0  0  0  0
 18 45  1  0  0  0  0
 19 20  2  0  0  0  0
 19 21  1  0  0  0  0
 21 22  1  0  0  0  0
 21 46  1  0  0  0  0
 22 23  1  0  0  0  0
 22 47  1  0  0  0  0
 22 48  1  0  0  0  0
 23 49  1  0  0  0  0
 23 50  1  0  0  0  0
 23 51  1  0  0  0  0
M  END
