4ci3_1.pdb
  MOE2019           3D

 16 15  0  0  0  0  0  0  0  0999 V2000
    3.7020    2.9800    0.0000 O   0  0  0  0  0  0  0  0  0  0  0  0
    2.9930    2.3330    0.0000 H   0  0  0  0  0  0  0  0  0  0  0  0
    5.0010    2.2300    0.0000 C   0  0  0  0  0  0  0  0  0  0  0  0
    6.3000    2.9800    0.0000 C   0  0  0  0  0  0  0  0  0  0  0  0
    7.5990    2.2300    0.0000 O   0  0  0  0  0  0  0  0  0  0  0  0
    8.8980    2.9800    0.0000 C   0  0  0  0  0  0  0  0  0  0  0  0
   10.1970    2.2300    0.0000 C   0  0  0  0  0  0  0  0  0  0  0  0
   10.1970    1.6010   -0.8900 H   0  0  0  0  0  0  0  0  0  0  0  0
   10.1970    1.6010    0.8900 H   0  0  0  0  0  0  0  0  0  0  0  0
   11.0670    2.8870    0.0000 H   0  0  0  0  0  0  0  0  0  0  0  0
    5.0010    1.6010    0.8900 H   0  0  0  0  0  0  0  0  0  0  0  0
    5.0010    1.6010   -0.8900 H   0  0  0  0  0  0  0  0  0  0  0  0
    6.3000    3.6090    0.8900 H   0  0  0  0  0  0  0  0  0  0  0  0
    6.3000    3.6090   -0.8900 H   0  0  0  0  0  0  0  0  0  0  0  0
    8.8980    3.6090   -0.8900 H   0  0  0  0  0  0  0  0  0  0  0  0
    8.8980    3.6090    0.8900 H   0  0  0  0  0  0  0  0  0  0  0  0
  1  2  1  0  0  0  0
  1  3  1  0  0  0  0
  3  4  1  0  0  0  0
  3 11  1  0  0  0  0
  3 12  1  0  0  0  0
  4  5  1  0  0  0  0
  4 13  1  0  0  0  0
  4 14  1  0  0  0  0
  5  6  1  0  0  0  0
  6  7  1  0  0  0  0
  6 15  1  0  0  0  0
  6 16  1  0  0  0  0
  7  8  1  0  0  0  0
  7  9  1  0  0  0  0
  7 10  1  0  0  0  0
M  END
