4ci3_17.pdb
  MOE2019           3D

 36 35  0  0  0  0  0  0  0  0999 V2000
   13.3830  -13.3830    0.0000 O   0  0  0  0  0  0  0  0  0  0  0  0
   13.3830  -11.8830    0.0000 C   0  0  0  0  0  0  0  0  0  0  0  0
   12.0840  -11.1330    0.0000 N   0  0  0  0  0  0  0  0  0  0  0  0
   10.7850  -11.8830    0.0000 C   0  0  0  0  0  0  0  0  0  0  0  0
    9.4860  -11.1330    0.0000 C   0  0  0  0  0  0  0  0  0  0  0  0
    8.1870  -11.8830    0.0000 C   0  0  0  0  0  0  0  0  0  0  0  0
    6.8880  -11.1330    0.0000 C   0  0  0  0  0  0  0  0  0  0  0  0
    5.5890  -11.8830    0.0000 C   0  0  0  0  0  0  0  0  0  0  0  0
    4.2900  -11.1330    0.0000 C   0  0  0  0  0  0  0  0  0  0  0  0
    2.9910  -11.8830    0.0000 C   0  0  0  0  0  0  0  0  0  0  0  0
    1.6920  -11.1330    0.0000 C   0  0  0  0  0  0  0  0  0  0  0  0
    0.3930  -11.8830    0.0000 C   0  0  0  0  0  0  0  0  0  0  0  0
   14.6820  -11.1330    0.0000 C   0  0  0  0  0  0  0  0  0  0  0  0
   12.0840  -10.1230    0.0000 H   0  0  0  0  0  0  0  0  0  0  0  0
   10.7850  -12.5120   -0.8900 H   0  0  0  0  0  0  0  0  0  0  0  0
   10.7850  -12.5120    0.8900 H   0  0  0  0  0  0  0  0  0  0  0  0
    9.4860  -10.5040    0.8900 H   0  0  0  0  0  0  0  0  0  0  0  0
    9.4860  -10.5040   -0.8900 H   0  0  0  0  0  0  0  0  0  0  0  0
    8.1870  -12.5120   -0.8900 H   0  0  0  0  0  0  0  0  0  0  0  0
    8.1870  -12.5120    0.8900 H   0  0  0  0  0  0  0  0  0  0  0  0
    6.8880  -10.5040    0.8900 H   0  0  0  0  0  0  0  0  0  0  0  0
    6.8880  -10.5040   -0.8900 H   0  0  0  0  0  0  0  0  0  0  0  0
    5.5890  -12.5120   -0.8900 H   0  0  0  0  0  0  0  0  0  0  0  0
    5.5890  -12.5120    0.8900 H   0  0  0  0  0  0  0  0  0  0  0  0
    4.2900  -10.5040   -0.8900 H   0  0  0  0  0  0  0  0  0  0  0  0
    4.2900  -10.5040    0.8900 H   0  0  0  0  0  0  0  0  0  0  0  0
    2.9910  -12.5120    0.8900 H   0  0  0  0  0  0  0  0  0  0  0  0
    2.9910  -12.5120   -0.8900 H   0  0  0  0  0  0  0  0  0  0  0  0
    1.6920  -10.5040   -0.8900 H   0  0  0  0  0  0  0  0  0  0  0  0
    1.6920  -10.5040    0.8900 H   0  0  0  0  0  0  0  0  0  0  0  0
    0.3930  -12.5120    0.8900 H   0  0  0  0  0  0  0  0  0  0  0  0
    0.3930  -12.5120   -0.8900 H   0  0  0  0  0  0  0  0  0  0  0  0
   -0.4770  -11.2260    0.0000 H   0  0  0  0  0  0  0  0  0  0  0  0
   14.6820  -10.5040    0.8900 H   0  0  0  0  0  0  0  0  0  0  0  0
   15.5520  -11.7900    0.0000 H   0  0  0  0  0  0  0  0  0  0  0  0
   14.6820  -10.5040   -0.8900 H   0  0  0  0  0  0  0  0  0  0  0  0
  1  2  2  0  0  0  0
  2  3  1  0  0  0  0
  2 13  1  0  0  0  0
  3  4  1  0  0  0  0
  3 14  1  0  0  0  0
  4  5  1  0  0  0  0
  4 15  1  0  0  0  0
  4 16  1  0  0  0  0
  5  6  1  0  0  0  0
  5 17  1  0  0  0  0
  5 18  1  0  0  0  0
  6  7  1  0  0  0  0
  6 19  1  0  0  0  0
  6 20  1  0  0  0  0
  7  8  1  0  0  0  0
  7 21  1  0  0  0  0
  7 22  1  0  0  0  0
  8  9  1  0  0  0  0
  8 23  1  0  0  0  0
  8 24  1  0  0  0  0
  9 10  1  0  0  0  0
  9 25  1  0  0  0  0
  9 26  1  0  0  0  0
 10 11  1  0  0  0  0
 10 27  1  0  0  0  0
 10 28  1  0  0  0  0
 11 12  1  0  0  0  0
 11 29  1  0  0  0  0
 11 30  1  0  0  0  0
 12 31  1  0  0  0  0
 12 32  1  0  0  0  0
 12 33  1  0  0  0  0
 13 34  1  0  0  0  0
 13 35  1  0  0  0  0
 13 36  1  0  0  0  0
M  END
