4im0_30.pdb
  MOE2019           3D

 36 35  0  0  0  0  0  0  0  0999 V2000
   10.9370  -20.4870    0.0000 O   0  0  0  0  0  0  0  0  0  0  0  0
   10.9500  -21.0460    0.7800 H   0  0  0  0  0  0  0  0  0  0  0  0
    9.6380  -19.7370    0.0000 C   0  0  0  0  0  0  0  0  0  0  0  0
    8.3390  -20.4870    0.0000 C   0  0  0  0  0  0  0  0  0  0  0  0
    7.0400  -19.7370    0.0000 C   0  0  0  0  0  0  0  0  0  0  0  0
    5.7410  -20.4870    0.0000 O   0  0  0  0  0  0  0  0  0  0  0  0
    4.4420  -19.7370    0.0000 C   0  0  0  0  0  0  0  0  0  0  0  0
    3.1430  -20.4870    0.0000 C   0  0  0  0  0  0  0  0  0  0  0  0
    1.8440  -19.7370    0.0000 C   0  0  0  0  0  0  0  0  0  0  0  0
    0.5450  -20.4870    0.0000 C   0  0  0  0  0  0  0  0  0  0  0  0
   -0.7540  -19.7370    0.0000 O   0  0  0  0  0  0  0  0  0  0  0  0
   -2.0530  -20.4870    0.0000 C   0  0  0  0  0  0  0  0  0  0  0  0
   -3.3520  -19.7370    0.0000 C   0  0  0  0  0  0  0  0  0  0  0  0
   -4.6510  -20.4870    0.0000 C   0  0  0  0  0  0  0  0  0  0  0  0
   -5.9500  -19.7370    0.0000 O   0  0  0  0  0  0  0  0  0  0  0  0
   -6.6590  -20.3840    0.0000 H   0  0  0  0  0  0  0  0  0  0  0  0
    9.6380  -19.1080    0.8900 H   0  0  0  0  0  0  0  0  0  0  0  0
    9.6380  -19.1080   -0.8900 H   0  0  0  0  0  0  0  0  0  0  0  0
    8.3390  -21.1160   -0.8900 H   0  0  0  0  0  0  0  0  0  0  0  0
    8.3390  -21.1160    0.8900 H   0  0  0  0  0  0  0  0  0  0  0  0
    7.0400  -19.1080   -0.8900 H   0  0  0  0  0  0  0  0  0  0  0  0
    7.0400  -19.1080    0.8900 H   0  0  0  0  0  0  0  0  0  0  0  0
    4.4420  -19.1080    0.8900 H   0  0  0  0  0  0  0  0  0  0  0  0
    4.4420  -19.1080   -0.8900 H   0  0  0  0  0  0  0  0  0  0  0  0
    3.1430  -21.1160   -0.8900 H   0  0  0  0  0  0  0  0  0  0  0  0
    3.1430  -21.1160    0.8900 H   0  0  0  0  0  0  0  0  0  0  0  0
    1.8440  -19.1080   -0.8900 H   0  0  0  0  0  0  0  0  0  0  0  0
    1.8440  -19.1080    0.8900 H   0  0  0  0  0  0  0  0  0  0  0  0
    0.5450  -21.1160    0.8900 H   0  0  0  0  0  0  0  0  0  0  0  0
    0.5450  -21.1160   -0.8900 H   0  0  0  0  0  0  0  0  0  0  0  0
   -2.0530  -21.1160   -0.8900 H   0  0  0  0  0  0  0  0  0  0  0  0
   -2.0530  -21.1160    0.8900 H   0  0  0  0  0  0  0  0  0  0  0  0
   -3.3520  -19.1080   -0.8900 H   0  0  0  0  0  0  0  0  0  0  0  0
   -3.3520  -19.1080    0.8900 H   0  0  0  0  0  0  0  0  0  0  0  0
   -4.6510  -21.1160    0.8900 H   0  0  0  0  0  0  0  0  0  0  0  0
   -4.6510  -21.1160   -0.8900 H   0  0  0  0  0  0  0  0  0  0  0  0
  1  2  1  0  0  0  0
  1  3  1  0  0  0  0
  3  4  1  0  0  0  0
  3 17  1  0  0  0  0
  3 18  1  0  0  0  0
  4  5  1  0  0  0  0
  4 19  1  0  0  0  0
  4 20  1  0  0  0  0
  5  6  1  0  0  0  0
  5 21  1  0  0  0  0
  5 22  1  0  0  0  0
  6  7  1  0  0  0  0
  7  8  1  0  0  0  0
  7 23  1  0  0  0  0
  7 24  1  0  0  0  0
  8  9  1  0  0  0  0
  8 25  1  0  0  0  0
  8 26  1  0  0  0  0
  9 10  1  0  0  0  0
  9 27  1  0  0  0  0
  9 28  1  0  0  0  0
 10 11  1  0  0  0  0
 10 29  1  0  0  0  0
 10 30  1  0  0  0  0
 11 12  1  0  0  0  0
 12 13  1  0  0  0  0
 12 31  1  0  0  0  0
 12 32  1  0  0  0  0
 13 14  1  0  0  0  0
 13 33  1  0  0  0  0
 13 34  1  0  0  0  0
 14 15  1  0  0  0  0
 14 35  1  0  0  0  0
 14 36  1  0  0  0  0
 15 16  1  0  0  0  0
M  END
