4im0_29.pdb
  MOE2019           3D

 36 35  0  0  0  0  0  0  0  0999 V2000
   27.9920  -10.2850    0.0000 O   0  0  0  0  0  0  0  0  0  0  0  0
   28.0050  -10.8440    0.7800 H   0  0  0  0  0  0  0  0  0  0  0  0
   26.6930   -9.5350    0.0000 C   0  0  0  0  0  0  0  0  0  0  0  0
   25.3940  -10.2850    0.0000 C   0  0  0  0  0  0  0  0  0  0  0  0
   24.0950   -9.5350    0.0000 C   0  0  0  0  0  0  0  0  0  0  0  0
   22.7960  -10.2850    0.0000 O   0  0  0  0  0  0  0  0  0  0  0  0
   21.4970   -9.5350    0.0000 C   0  0  0  0  0  0  0  0  0  0  0  0
   20.1980  -10.2850    0.0000 C   0  0  0  0  0  0  0  0  0  0  0  0
   18.8990   -9.5350    0.0000 C   0  0  0  0  0  0  0  0  0  0  0  0
   17.6000  -10.2850    0.0000 C   0  0  0  0  0  0  0  0  0  0  0  0
   16.3010   -9.5350    0.0000 O   0  0  0  0  0  0  0  0  0  0  0  0
   15.0020  -10.2850    0.0000 C   0  0  0  0  0  0  0  0  0  0  0  0
   13.7020   -9.5350    0.0000 C   0  0  0  0  0  0  0  0  0  0  0  0
   12.4030  -10.2850    0.0000 C   0  0  0  0  0  0  0  0  0  0  0  0
   11.1040   -9.5350    0.0000 O   0  0  0  0  0  0  0  0  0  0  0  0
   10.3950  -10.1820    0.0000 H   0  0  0  0  0  0  0  0  0  0  0  0
   26.6930   -8.9060    0.8900 H   0  0  0  0  0  0  0  0  0  0  0  0
   26.6930   -8.9060   -0.8900 H   0  0  0  0  0  0  0  0  0  0  0  0
   25.3940  -10.9140   -0.8900 H   0  0  0  0  0  0  0  0  0  0  0  0
   25.3940  -10.9140    0.8900 H   0  0  0  0  0  0  0  0  0  0  0  0
   24.0950   -8.9060   -0.8900 H   0  0  0  0  0  0  0  0  0  0  0  0
   24.0950   -8.9060    0.8900 H   0  0  0  0  0  0  0  0  0  0  0  0
   21.4970   -8.9060    0.8900 H   0  0  0  0  0  0  0  0  0  0  0  0
   21.4970   -8.9060   -0.8900 H   0  0  0  0  0  0  0  0  0  0  0  0
   20.1980  -10.9140   -0.8900 H   0  0  0  0  0  0  0  0  0  0  0  0
   20.1980  -10.9140    0.8900 H   0  0  0  0  0  0  0  0  0  0  0  0
   18.8990   -8.9060   -0.8900 H   0  0  0  0  0  0  0  0  0  0  0  0
   18.8990   -8.9060    0.8900 H   0  0  0  0  0  0  0  0  0  0  0  0
   17.6000  -10.9140    0.8900 H   0  0  0  0  0  0  0  0  0  0  0  0
   17.6000  -10.9140   -0.8900 H   0  0  0  0  0  0  0  0  0  0  0  0
   15.0020  -10.9140   -0.8900 H   0  0  0  0  0  0  0  0  0  0  0  0
   15.0020  -10.9140    0.8900 H   0  0  0  0  0  0  0  0  0  0  0  0
   13.7020   -8.9060   -0.8900 H   0  0  0  0  0  0  0  0  0  0  0  0
   13.7020   -8.9060    0.8900 H   0  0  0  0  0  0  0  0  0  0  0  0
   12.4030  -10.9140    0.8900 H   0  0  0  0  0  0  0  0  0  0  0  0
   12.4030  -10.9140   -0.8900 H   0  0  0  0  0  0  0  0  0  0  0  0
  1  2  1  0  0  0  0
  1  3  1  0  0  0  0
  3  4  1  0  0  0  0
  3 17  1  0  0  0  0
  3 18  1  0  0  0  0
  4  5  1  0  0  0  0
  4 19  1  0  0  0  0
  4 20  1  0  0  0  0
  5  6  1  0  0  0  0
  5 21  1  0  0  0  0
  5 22  1  0  0  0  0
  6  7  1  0  0  0  0
  7  8  1  0  0  0  0
  7 23  1  0  0  0  0
  7 24  1  0  0  0  0
  8  9  1  0  0  0  0
  8 25  1  0  0  0  0
  8 26  1  0  0  0  0
  9 10  1  0  0  0  0
  9 27  1  0  0  0  0
  9 28  1  0  0  0  0
 10 11  1  0  0  0  0
 10 29  1  0  0  0  0
 10 30  1  0  0  0  0
 11 12  1  0  0  0  0
 12 13  1  0  0  0  0
 12 31  1  0  0  0  0
 12 32  1  0  0  0  0
 13 14  1  0  0  0  0
 13 33  1  0  0  0  0
 13 34  1  0  0  0  0
 14 15  1  0  0  0  0
 14 35  1  0  0  0  0
 14 36  1  0  0  0  0
 15 16  1  0  0  0  0
M  END
