4im0_3.pdb
  MOE2019           3D

 22 21  0  0  0  0  0  0  0  0999 V2000
   12.8320   -7.4080    0.0000 O   0  0  0  0  0  0  0  0  0  0  0  0
   12.5630   -6.9180   -0.7800 H   0  0  0  0  0  0  0  0  0  0  0  0
   12.0820   -8.7080    0.0000 C   0  0  0  0  0  0  0  0  0  0  0  0
   10.5820   -8.7080    0.0000 C   0  0  0  0  0  0  0  0  0  0  0  0
    9.8320  -10.0070    0.0000 O   0  0  0  0  0  0  0  0  0  0  0  0
    8.3320  -10.0070    0.0000 C   0  0  0  0  0  0  0  0  0  0  0  0
    7.5820  -11.3060    0.0000 C   0  0  0  0  0  0  0  0  0  0  0  0
    6.0820  -11.3060    0.0000 C   0  0  0  0  0  0  0  0  0  0  0  0
    5.3320  -12.6050    0.0000 C   0  0  0  0  0  0  0  0  0  0  0  0
   12.3970   -9.2530   -0.8900 H   0  0  0  0  0  0  0  0  0  0  0  0
   12.3970   -9.2530    0.8900 H   0  0  0  0  0  0  0  0  0  0  0  0
   10.2670   -8.1630   -0.8900 H   0  0  0  0  0  0  0  0  0  0  0  0
   10.2670   -8.1630    0.8900 H   0  0  0  0  0  0  0  0  0  0  0  0
    8.0170   -9.4620    0.8900 H   0  0  0  0  0  0  0  0  0  0  0  0
    8.0170   -9.4620   -0.8900 H   0  0  0  0  0  0  0  0  0  0  0  0
    7.8970  -11.8510   -0.8900 H   0  0  0  0  0  0  0  0  0  0  0  0
    7.8970  -11.8510    0.8900 H   0  0  0  0  0  0  0  0  0  0  0  0
    5.7670  -10.7610    0.8900 H   0  0  0  0  0  0  0  0  0  0  0  0
    5.7670  -10.7610   -0.8900 H   0  0  0  0  0  0  0  0  0  0  0  0
    5.6470  -13.1500    0.8900 H   0  0  0  0  0  0  0  0  0  0  0  0
    5.6470  -13.1500   -0.8900 H   0  0  0  0  0  0  0  0  0  0  0  0
    4.2500  -12.4710    0.0000 H   0  0  0  0  0  0  0  0  0  0  0  0
  1  2  1  0  0  0  0
  1  3  1  0  0  0  0
  3  4  1  0  0  0  0
  3 10  1  0  0  0  0
  3 11  1  0  0  0  0
  4  5  1  0  0  0  0
  4 12  1  0  0  0  0
  4 13  1  0  0  0  0
  5  6  1  0  0  0  0
  6  7  1  0  0  0  0
  6 14  1  0  0  0  0
  6 15  1  0  0  0  0
  7  8  1  0  0  0  0
  7 16  1  0  0  0  0
  7 17  1  0  0  0  0
  8  9  1  0  0  0  0
  8 18  1  0  0  0  0
  8 19  1  0  0  0  0
  9 20  1  0  0  0  0
  9 21  1  0  0  0  0
  9 22  1  0  0  0  0
M  END
