4im0_13.pdb
  MOE2019           3D

 46 45  0  0  0  0  0  0  0  0999 V2000
   21.0600  -20.6720    0.0000 O   0  0  0  0  0  0  0  0  0  0  0  0
   21.0730  -21.2310    0.7800 H   0  0  0  0  0  0  0  0  0  0  0  0
   19.7610  -19.9220    0.0000 C   0  0  0  0  0  0  0  0  0  0  0  0
   18.4620  -20.6720    0.0000 C   0  0  0  0  0  0  0  0  0  0  0  0
   17.1630  -19.9220    0.0000 C   0  0  0  0  0  0  0  0  0  0  0  0
   15.8640  -20.6720    0.0000 O   0  0  0  0  0  0  0  0  0  0  0  0
   14.5650  -19.9220    0.0000 C   0  0  0  0  0  0  0  0  0  0  0  0
   13.2660  -20.6720    0.0000 C   0  0  0  0  0  0  0  0  0  0  0  0
   11.9670  -19.9220    0.0000 C   0  0  0  0  0  0  0  0  0  0  0  0
   10.6680  -20.6720    0.0000 O   0  0  0  0  0  0  0  0  0  0  0  0
    9.3690  -19.9220    0.0000 C   0  0  0  0  0  0  0  0  0  0  0  0
    8.0700  -20.6720    0.0000 C   0  0  0  0  0  0  0  0  0  0  0  0
    6.7710  -19.9220    0.0000 C   0  0  0  0  0  0  0  0  0  0  0  0
    5.4720  -20.6720    0.0000 O   0  0  0  0  0  0  0  0  0  0  0  0
    4.1730  -19.9220    0.0000 C   0  0  0  0  0  0  0  0  0  0  0  0
    2.8740  -20.6720    0.0000 C   0  0  0  0  0  0  0  0  0  0  0  0
    1.5750  -19.9220    0.0000 C   0  0  0  0  0  0  0  0  0  0  0  0
    0.2760  -20.6720    0.0000 O   0  0  0  0  0  0  0  0  0  0  0  0
   -1.0230  -19.9220    0.0000 C   0  0  0  0  0  0  0  0  0  0  0  0
   19.7610  -19.2930    0.8900 H   0  0  0  0  0  0  0  0  0  0  0  0
   19.7610  -19.2930   -0.8900 H   0  0  0  0  0  0  0  0  0  0  0  0
   18.4620  -21.3010   -0.8900 H   0  0  0  0  0  0  0  0  0  0  0  0
   18.4620  -21.3010    0.8900 H   0  0  0  0  0  0  0  0  0  0  0  0
   17.1630  -19.2930   -0.8900 H   0  0  0  0  0  0  0  0  0  0  0  0
   17.1630  -19.2930    0.8900 H   0  0  0  0  0  0  0  0  0  0  0  0
   14.5650  -19.2930    0.8900 H   0  0  0  0  0  0  0  0  0  0  0  0
   14.5650  -19.2930   -0.8900 H   0  0  0  0  0  0  0  0  0  0  0  0
   13.2660  -21.3010   -0.8900 H   0  0  0  0  0  0  0  0  0  0  0  0
   13.2660  -21.3010    0.8900 H   0  0  0  0  0  0  0  0  0  0  0  0
   11.9670  -19.2930   -0.8900 H   0  0  0  0  0  0  0  0  0  0  0  0
   11.9670  -19.2930    0.8900 H   0  0  0  0  0  0  0  0  0  0  0  0
    9.3690  -19.2930    0.8900 H   0  0  0  0  0  0  0  0  0  0  0  0
    9.3690  -19.2930   -0.8900 H   0  0  0  0  0  0  0  0  0  0  0  0
    8.0700  -21.3010    0.8900 H   0  0  0  0  0  0  0  0  0  0  0  0
    8.0700  -21.3010   -0.8900 H   0  0  0  0  0  0  0  0  0  0  0  0
    6.7710  -19.2930   -0.8900 H   0  0  0  0  0  0  0  0  0  0  0  0
    6.7710  -19.2930    0.8900 H   0  0  0  0  0  0  0  0  0  0  0  0
    4.1730  -19.2930    0.8900 H   0  0  0  0  0  0  0  0  0  0  0  0
    4.1730  -19.2930   -0.8900 H   0  0  0  0  0  0  0  0  0  0  0  0
    2.8740  -21.3010    0.8900 H   0  0  0  0  0  0  0  0  0  0  0  0
    2.8740  -21.3010   -0.8900 H   0  0  0  0  0  0  0  0  0  0  0  0
    1.5750  -19.2930   -0.8900 H   0  0  0  0  0  0  0  0  0  0  0  0
    1.5750  -19.2930    0.8900 H   0  0  0  0  0  0  0  0  0  0  0  0
   -1.0230  -19.2930    0.8900 H   0  0  0  0  0  0  0  0  0  0  0  0
   -1.0230  -19.2930   -0.8900 H   0  0  0  0  0  0  0  0  0  0  0  0
   -1.8930  -20.5790    0.0000 H   0  0  0  0  0  0  0  0  0  0  0  0
  1  2  1  0  0  0  0
  1  3  1  0  0  0  0
  3  4  1  0  0  0  0
  3 20  1  0  0  0  0
  3 21  1  0  0  0  0
  4  5  1  0  0  0  0
  4 22  1  0  0  0  0
  4 23  1  0  0  0  0
  5  6  1  0  0  0  0
  5 24  1  0  0  0  0
  5 25  1  0  0  0  0
  6  7  1  0  0  0  0
  7  8  1  0  0  0  0
  7 26  1  0  0  0  0
  7 27  1  0  0  0  0
  8  9  1  0  0  0  0
  8 28  1  0  0  0  0
  8 29  1  0  0  0  0
  9 10  1  0  0  0  0
  9 30  1  0  0  0  0
  9 31  1  0  0  0  0
 10 11  1  0  0  0  0
 11 12  1  0  0  0  0
 11 32  1  0  0  0  0
 11 33  1  0  0  0  0
 12 13  1  0  0  0  0
 12 34  1  0  0  0  0
 12 35  1  0  0  0  0
 13 14  1  0  0  0  0
 13 36  1  0  0  0  0
 13 37  1  0  0  0  0
 14 15  1  0  0  0  0
 15 16  1  0  0  0  0
 15 38  1  0  0  0  0
 15 39  1  0  0  0  0
 16 17  1  0  0  0  0
 16 40  1  0  0  0  0
 16 41  1  0  0  0  0
 17 18  1  0  0  0  0
 17 42  1  0  0  0  0
 17 43  1  0  0  0  0
 18 19  1  0  0  0  0
 19 44  1  0  0  0  0
 19 45  1  0  0  0  0
 19 46  1  0  0  0  0
M  END
