4im0_8.pdb
  MOE2019           3D

 31 30  0  0  0  0  0  0  0  0999 V2000
   26.9840  -10.0150    0.0000 O   0  0  0  0  0  0  0  0  0  0  0  0
   26.9970  -10.5740    0.7800 H   0  0  0  0  0  0  0  0  0  0  0  0
   25.6850   -9.2650    0.0000 C   0  0  0  0  0  0  0  0  0  0  0  0
   24.3850  -10.0150    0.0000 C   0  0  0  0  0  0  0  0  0  0  0  0
   23.0860   -9.2650    0.0000 O   0  0  0  0  0  0  0  0  0  0  0  0
   21.7870  -10.0150    0.0000 C   0  0  0  0  0  0  0  0  0  0  0  0
   20.4880   -9.2650    0.0000 C   0  0  0  0  0  0  0  0  0  0  0  0
   19.1890  -10.0150    0.0000 O   0  0  0  0  0  0  0  0  0  0  0  0
   17.8900   -9.2650    0.0000 C   0  0  0  0  0  0  0  0  0  0  0  0
   16.5910  -10.0150    0.0000 C   0  0  0  0  0  0  0  0  0  0  0  0
   15.2920   -9.2650    0.0000 O   0  0  0  0  0  0  0  0  0  0  0  0
   13.9930  -10.0150    0.0000 C   0  0  0  0  0  0  0  0  0  0  0  0
   12.6940   -9.2650    0.0000 C   0  0  0  0  0  0  0  0  0  0  0  0
   11.3950  -10.0150    0.0000 O   0  0  0  0  0  0  0  0  0  0  0  0
   10.6860   -9.3680    0.0000 H   0  0  0  0  0  0  0  0  0  0  0  0
   25.6850   -8.6360    0.8900 H   0  0  0  0  0  0  0  0  0  0  0  0
   25.6850   -8.6360   -0.8900 H   0  0  0  0  0  0  0  0  0  0  0  0
   24.3850  -10.6440    0.8900 H   0  0  0  0  0  0  0  0  0  0  0  0
   24.3850  -10.6440   -0.8900 H   0  0  0  0  0  0  0  0  0  0  0  0
   21.7870  -10.6440   -0.8900 H   0  0  0  0  0  0  0  0  0  0  0  0
   21.7870  -10.6440    0.8900 H   0  0  0  0  0  0  0  0  0  0  0  0
   20.4880   -8.6360   -0.8900 H   0  0  0  0  0  0  0  0  0  0  0  0
   20.4880   -8.6360    0.8900 H   0  0  0  0  0  0  0  0  0  0  0  0
   17.8900   -8.6360    0.8900 H   0  0  0  0  0  0  0  0  0  0  0  0
   17.8900   -8.6360   -0.8900 H   0  0  0  0  0  0  0  0  0  0  0  0
   16.5910  -10.6440    0.8900 H   0  0  0  0  0  0  0  0  0  0  0  0
   16.5910  -10.6440   -0.8900 H   0  0  0  0  0  0  0  0  0  0  0  0
   13.9930  -10.6440   -0.8900 H   0  0  0  0  0  0  0  0  0  0  0  0
   13.9930  -10.6440    0.8900 H   0  0  0  0  0  0  0  0  0  0  0  0
   12.6940   -8.6360   -0.8900 H   0  0  0  0  0  0  0  0  0  0  0  0
   12.6940   -8.6360    0.8900 H   0  0  0  0  0  0  0  0  0  0  0  0
  1  2  1  0  0  0  0
  1  3  1  0  0  0  0
  3  4  1  0  0  0  0
  3 16  1  0  0  0  0
  3 17  1  0  0  0  0
  4  5  1  0  0  0  0
  4 18  1  0  0  0  0
  4 19  1  0  0  0  0
  5  6  1  0  0  0  0
  6  7  1  0  0  0  0
  6 20  1  0  0  0  0
  6 21  1  0  0  0  0
  7  8  1  0  0  0  0
  7 22  1  0  0  0  0
  7 23  1  0  0  0  0
  8  9  1  0  0  0  0
  9 10  1  0  0  0  0
  9 24  1  0  0  0  0
  9 25  1  0  0  0  0
 10 11  1  0  0  0  0
 10 26  1  0  0  0  0
 10 27  1  0  0  0  0
 11 12  1  0  0  0  0
 12 13  1  0  0  0  0
 12 28  1  0  0  0  0
 12 29  1  0  0  0  0
 13 14  1  0  0  0  0
 13 30  1  0  0  0  0
 13 31  1  0  0  0  0
 14 15  1  0  0  0  0
M  END
