4ipf_12.pdb
  MOE2019           3D

  7  6  0  0  0  0  0  0  0  0999 V2000
    6.0290   -3.2450    0.0000 C   0  0  0  0  0  0  0  0  0  0  0  0
    6.8100   -4.5260    0.0000 C   0  0  0  0  0  0  0  0  0  0  0  0
    7.5910   -5.8060    0.0000 C   0  0  0  0  0  0  0  0  0  0  0  0
    8.1460   -6.7150    0.0000 H   0  0  0  0  0  0  0  0  0  0  0  0
    6.3310   -2.6930   -0.8900 H   0  0  0  0  0  0  0  0  0  0  0  0
    6.3310   -2.6930    0.8900 H   0  0  0  0  0  0  0  0  0  0  0  0
    4.9510   -3.4050    0.0000 H   0  0  0  0  0  0  0  0  0  0  0  0
  1  2  1  0  0  0  0
  1  5  1  0  0  0  0
  1  6  1  0  0  0  0
  1  7  1  0  0  0  0
  2  3  3  0  0  0  0
  3  4  1  0  0  0  0
M  END
