4ipf_3.pdb
  MOE2019           3D

 13 12  0  0  0  0  0  0  0  0999 V2000
    4.0070    5.0210    0.0000 C   0  0  0  0  0  0  0  0  0  0  0  0
    5.3230    4.3010    0.0000 C   0  0  0  0  0  0  0  0  0  0  0  0
    6.6040    5.0800    0.0000 C   0  0  0  0  0  0  0  0  0  0  0  0
    7.9200    4.3600    0.0000 C   0  0  0  0  0  0  0  0  0  0  0  0
    9.2360    3.6400    0.0000 C   0  0  0  0  0  0  0  0  0  0  0  0
   10.1700    3.1290    0.0000 H   0  0  0  0  0  0  0  0  0  0  0  0
    3.9930    5.6500    0.8900 H   0  0  0  0  0  0  0  0  0  0  0  0
    3.9930    5.6500   -0.8900 H   0  0  0  0  0  0  0  0  0  0  0  0
    3.1520    4.3440    0.0000 H   0  0  0  0  0  0  0  0  0  0  0  0
    5.3370    3.6720   -0.8900 H   0  0  0  0  0  0  0  0  0  0  0  0
    5.3370    3.6720    0.8900 H   0  0  0  0  0  0  0  0  0  0  0  0
    6.5900    5.7090    0.8900 H   0  0  0  0  0  0  0  0  0  0  0  0
    6.5900    5.7090   -0.8900 H   0  0  0  0  0  0  0  0  0  0  0  0
  1  2  1  0  0  0  0
  1  7  1  0  0  0  0
  1  8  1  0  0  0  0
  1  9  1  0  0  0  0
  2  3  1  0  0  0  0
  2 10  1  0  0  0  0
  2 11  1  0  0  0  0
  3  4  1  0  0  0  0
  3 12  1  0  0  0  0
  3 13  1  0  0  0  0
  4  5  3  0  0  0  0
  5  6  1  0  0  0  0
M  END
