4ly1_4.pdb
  MOE2019           3D

 26 25  0  0  0  0  0  0  0  0999 V2000
    3.5220    0.5760    0.0000 C   0  0  0  0  0  0  0  0  0  0  0  0
    4.8210    1.3260    0.0000 C   0  0  0  0  0  0  0  0  0  0  0  0
    6.1200    0.5760    0.0000 C   0  0  0  0  0  0  0  0  0  0  0  0
    7.4190    1.3260    0.0000 C   0  0  0  0  0  0  0  0  0  0  0  0
    8.7180    0.5760    0.0000 C   0  0  0  0  0  0  0  0  0  0  0  0
   10.0170    1.3260    0.0000 C   0  0  0  0  0  0  0  0  0  0  0  0
   11.3160    0.5760    0.0000 C   0  0  0  0  0  0  0  0  0  0  0  0
   12.6150    1.3260    0.0000 C   0  0  0  0  0  0  0  0  0  0  0  0
    3.5220   -0.0530    0.8900 H   0  0  0  0  0  0  0  0  0  0  0  0
    3.5220   -0.0530   -0.8900 H   0  0  0  0  0  0  0  0  0  0  0  0
    2.6520    1.2330    0.0000 H   0  0  0  0  0  0  0  0  0  0  0  0
    4.8210    1.9550   -0.8900 H   0  0  0  0  0  0  0  0  0  0  0  0
    4.8210    1.9550    0.8900 H   0  0  0  0  0  0  0  0  0  0  0  0
    6.1200   -0.0530    0.8900 H   0  0  0  0  0  0  0  0  0  0  0  0
    6.1200   -0.0530   -0.8900 H   0  0  0  0  0  0  0  0  0  0  0  0
    7.4190    1.9550   -0.8900 H   0  0  0  0  0  0  0  0  0  0  0  0
    7.4190    1.9550    0.8900 H   0  0  0  0  0  0  0  0  0  0  0  0
    8.7180   -0.0530   -0.8900 H   0  0  0  0  0  0  0  0  0  0  0  0
    8.7180   -0.0530    0.8900 H   0  0  0  0  0  0  0  0  0  0  0  0
   10.0170    1.9550    0.8900 H   0  0  0  0  0  0  0  0  0  0  0  0
   10.0170    1.9550   -0.8900 H   0  0  0  0  0  0  0  0  0  0  0  0
   11.3160   -0.0530   -0.8900 H   0  0  0  0  0  0  0  0  0  0  0  0
   11.3160   -0.0530    0.8900 H   0  0  0  0  0  0  0  0  0  0  0  0
   12.6150    1.9550    0.8900 H   0  0  0  0  0  0  0  0  0  0  0  0
   13.4850    0.6690    0.0000 H   0  0  0  0  0  0  0  0  0  0  0  0
   12.6150    1.9550   -0.8900 H   0  0  0  0  0  0  0  0  0  0  0  0
  1  2  1  0  0  0  0
  1  9  1  0  0  0  0
  1 10  1  0  0  0  0
  1 11  1  0  0  0  0
  2  3  1  0  0  0  0
  2 12  1  0  0  0  0
  2 13  1  0  0  0  0
  3  4  1  0  0  0  0
  3 14  1  0  0  0  0
  3 15  1  0  0  0  0
  4  5  1  0  0  0  0
  4 16  1  0  0  0  0
  4 17  1  0  0  0  0
  5  6  1  0  0  0  0
  5 18  1  0  0  0  0
  5 19  1  0  0  0  0
  6  7  1  0  0  0  0
  6 20  1  0  0  0  0
  6 21  1  0  0  0  0
  7  8  1  0  0  0  0
  7 22  1  0  0  0  0
  7 23  1  0  0  0  0
  8 24  1  0  0  0  0
  8 25  1  0  0  0  0
  8 26  1  0  0  0  0
M  END
