4ly1_1.pdb
  MOE2019           3D

 22 21  0  0  0  0  0  0  0  0999 V2000
   -1.1330    1.9630    0.0000 O   0  0  0  0  0  0  0  0  0  0  0  0
   -0.3830    3.2620    0.0000 C   0  0  0  0  0  0  0  0  0  0  0  0
    1.1170    3.2620    0.0000 N   0  0  0  0  0  0  0  0  0  0  0  0
    1.8670    1.9630    0.0000 C   0  0  0  0  0  0  0  0  0  0  0  0
    3.3670    1.9630    0.0000 C   0  0  0  0  0  0  0  0  0  0  0  0
    4.1170    0.6640    0.0000 C   0  0  0  0  0  0  0  0  0  0  0  0
    5.6170    0.6640    0.0000 C   0  0  0  0  0  0  0  0  0  0  0  0
   -1.1330    4.5610    0.0000 C   0  0  0  0  0  0  0  0  0  0  0  0
   -2.6330    4.5610    0.0000 O   0  0  0  0  0  0  0  0  0  0  0  0
   -2.9230    4.0830   -0.7800 H   0  0  0  0  0  0  0  0  0  0  0  0
    1.6220    4.1370    0.0000 H   0  0  0  0  0  0  0  0  0  0  0  0
    1.5520    1.4180   -0.8900 H   0  0  0  0  0  0  0  0  0  0  0  0
    1.5520    1.4180    0.8900 H   0  0  0  0  0  0  0  0  0  0  0  0
    3.6820    2.5080    0.8900 H   0  0  0  0  0  0  0  0  0  0  0  0
    3.6820    2.5080   -0.8900 H   0  0  0  0  0  0  0  0  0  0  0  0
    3.8020    0.1190   -0.8900 H   0  0  0  0  0  0  0  0  0  0  0  0
    3.8020    0.1190    0.8900 H   0  0  0  0  0  0  0  0  0  0  0  0
    5.9320    1.2090    0.8900 H   0  0  0  0  0  0  0  0  0  0  0  0
    6.0410   -0.3400    0.0000 H   0  0  0  0  0  0  0  0  0  0  0  0
    5.9320    1.2090   -0.8900 H   0  0  0  0  0  0  0  0  0  0  0  0
   -0.8180    5.1060   -0.8900 H   0  0  0  0  0  0  0  0  0  0  0  0
   -0.8180    5.1060    0.8900 H   0  0  0  0  0  0  0  0  0  0  0  0
  1  2  2  0  0  0  0
  2  3  1  0  0  0  0
  2  8  1  0  0  0  0
  3  4  1  0  0  0  0
  3 11  1  0  0  0  0
  4  5  1  0  0  0  0
  4 12  1  0  0  0  0
  4 13  1  0  0  0  0
  5  6  1  0  0  0  0
  5 14  1  0  0  0  0
  5 15  1  0  0  0  0
  6  7  1  0  0  0  0
  6 16  1  0  0  0  0
  6 17  1  0  0  0  0
  7 18  1  0  0  0  0
  7 19  1  0  0  0  0
  7 20  1  0  0  0  0
  8  9  1  0  0  0  0
  8 21  1  0  0  0  0
  8 22  1  0  0  0  0
  9 10  1  0  0  0  0
M  END
