4mkc_3.pdb
  MOE2019           3D

  5  4  0  0  0  0  0  0  0  0999 V2000
   15.7290   -9.7640    0.0000 C   0  0  0  0  0  0  0  0  0  0  0  0
   15.7290  -10.3930    0.8900 H   0  0  0  0  0  0  0  0  0  0  0  0
   15.7290  -10.3930   -0.8900 H   0  0  0  0  0  0  0  0  0  0  0  0
   14.8320   -9.1440    0.0000 H   0  0  0  0  0  0  0  0  0  0  0  0
   16.5990   -9.1070    0.0000 H   0  0  0  0  0  0  0  0  0  0  0  0
  1  2  1  0  0  0  0
  1  3  1  0  0  0  0
  1  4  1  0  0  0  0
  1  5  1  0  0  0  0
M  END
