4mkc_2.pdb
  MOE2019           3D

 15 14  0  0  0  0  0  0  0  0999 V2000
   13.3940   -8.4020    0.0000 C   0  0  0  0  0  0  0  0  0  0  0  0
   14.6930   -7.6520    0.0000 C   0  0  0  0  0  0  0  0  0  0  0  0
   14.6930   -6.1520    0.0000 O   0  0  0  0  0  0  0  0  0  0  0  0
   15.9920   -8.4020    0.0000 N   0  0  0  0  0  0  0  0  0  0  0  0
   17.2910   -7.6520    0.0000 C   0  0  0  0  0  0  0  0  0  0  0  0
   18.5900   -8.4020    0.0000 C   0  0  0  0  0  0  0  0  0  0  0  0
   13.3940   -9.0310   -0.8900 H   0  0  0  0  0  0  0  0  0  0  0  0
   13.3940   -9.0310    0.8900 H   0  0  0  0  0  0  0  0  0  0  0  0
   12.5240   -7.7450    0.0000 H   0  0  0  0  0  0  0  0  0  0  0  0
   15.9920   -9.4120    0.0000 H   0  0  0  0  0  0  0  0  0  0  0  0
   17.2910   -7.0230    0.8900 H   0  0  0  0  0  0  0  0  0  0  0  0
   17.2910   -7.0230   -0.8900 H   0  0  0  0  0  0  0  0  0  0  0  0
   18.5900   -9.0310   -0.8900 H   0  0  0  0  0  0  0  0  0  0  0  0
   19.4600   -7.7450    0.0000 H   0  0  0  0  0  0  0  0  0  0  0  0
   18.5900   -9.0310    0.8900 H   0  0  0  0  0  0  0  0  0  0  0  0
  1  2  1  0  0  0  0
  1  7  1  0  0  0  0
  1  8  1  0  0  0  0
  1  9  1  0  0  0  0
  2  3  2  0  0  0  0
  2  4  1  0  0  0  0
  4  5  1  0  0  0  0
  4 10  1  0  0  0  0
  5  6  1  0  0  0  0
  5 11  1  0  0  0  0
  5 12  1  0  0  0  0
  6 13  1  0  0  0  0
  6 14  1  0  0  0  0
  6 15  1  0  0  0  0
M  END
