4mkc_7.pdb
  MOE2019           3D

 12 11  0  0  0  0  0  0  0  0999 V2000
   12.4250    7.0580    0.0000 C   0  0  0  0  0  0  0  0  0  0  0  0
   13.1750    8.3570    0.0000 C   0  0  0  0  0  0  0  0  0  0  0  0
   14.6750    8.3570    0.0000 C   0  0  0  0  0  0  0  0  0  0  0  0
   15.4250    9.6560    0.0000 O   0  0  0  0  0  0  0  0  0  0  0  0
   16.3630    9.4500    0.0000 H   0  0  0  0  0  0  0  0  0  0  0  0
   12.7400    6.5130    0.8900 H   0  0  0  0  0  0  0  0  0  0  0  0
   12.7400    6.5130   -0.8900 H   0  0  0  0  0  0  0  0  0  0  0  0
   11.3430    7.1920    0.0000 H   0  0  0  0  0  0  0  0  0  0  0  0
   12.8600    8.9020    0.8900 H   0  0  0  0  0  0  0  0  0  0  0  0
   12.8600    8.9020   -0.8900 H   0  0  0  0  0  0  0  0  0  0  0  0
   14.9900    7.8120   -0.8900 H   0  0  0  0  0  0  0  0  0  0  0  0
   14.9900    7.8120    0.8900 H   0  0  0  0  0  0  0  0  0  0  0  0
  1  2  1  0  0  0  0
  1  6  1  0  0  0  0
  1  7  1  0  0  0  0
  1  8  1  0  0  0  0
  2  3  1  0  0  0  0
  2  9  1  0  0  0  0
  2 10  1  0  0  0  0
  3  4  1  0  0  0  0
  3 11  1  0  0  0  0
  3 12  1  0  0  0  0
  4  5  1  0  0  0  0
M  END
