4mxo_7.pdb
  MOE2019           3D

 44 44  0  0  0  0  0  0  0  0999 V2000
   24.4180  -12.4310    0.0000 C   0  0  0  0  0  0  0  0  0  0  0  0
   23.1300  -11.6610    0.0000 C   0  0  0  0  0  0  0  0  0  0  0  0
   21.8200  -12.3920    0.0000 C   0  0  0  0  0  0  0  0  0  0  0  0
   20.5330  -11.6220    0.0000 N   0  0  0  0  0  0  0  0  0  0  0  0
   19.2220  -12.3530    0.0000 C   0  0  0  0  0  0  0  0  0  0  0  0
   17.9350  -11.5830    0.0000 C   0  0  0  0  0  0  0  0  0  0  0  0
   16.6250  -12.3130    0.0000 C   0  0  0  0  0  0  0  0  0  0  0  0
   16.6020  -13.8130    0.0000 C   0  0  0  0  0  0  0  0  0  0  0  0
   15.2920  -14.5440    0.0000 O   0  0  0  0  0  0  0  0  0  0  0  0
   17.8900  -14.5830    0.0000 C   0  0  0  0  0  0  0  0  0  0  0  0
   19.2000  -13.8520    0.0000 C   0  0  0  0  0  0  0  0  0  0  0  0
   24.4090  -13.0600    0.8900 H   0  0  0  0  0  0  0  0  0  0  0  0
   25.2970  -11.7870    0.0000 H   0  0  0  0  0  0  0  0  0  0  0  0
   24.4090  -13.0600   -0.8900 H   0  0  0  0  0  0  0  0  0  0  0  0
   23.1390  -11.0320   -0.8900 H   0  0  0  0  0  0  0  0  0  0  0  0
   23.1390  -11.0320    0.8900 H   0  0  0  0  0  0  0  0  0  0  0  0
   21.8110  -13.0210    0.8900 H   0  0  0  0  0  0  0  0  0  0  0  0
   21.8110  -13.0210   -0.8900 H   0  0  0  0  0  0  0  0  0  0  0  0
   20.5480  -10.6120    0.0000 H   0  0  0  0  0  0  0  0  0  0  0  0
   17.9520  -10.5030    0.0000 H   0  0  0  0  0  0  0  0  0  0  0  0
   15.6980  -11.7590    0.0000 H   0  0  0  0  0  0  0  0  0  0  0  0
   17.8740  -15.6630    0.0000 H   0  0  0  0  0  0  0  0  0  0  0  0
   20.1270  -14.4060    0.0000 H   0  0  0  0  0  0  0  0  0  0  0  0
   14.0040  -13.7740    0.0000 C   0  0  0  0  0  0  0  0  0  0  0  0
   12.6940  -14.5050    0.0000 C   0  0  0  0  0  0  0  0  0  0  0  0
   11.4060  -13.7350    0.0000 O   0  0  0  0  0  0  0  0  0  0  0  0
   10.0960  -14.4660    0.0000 C   0  0  0  0  0  0  0  0  0  0  0  0
    8.8090  -13.6960    0.0000 C   0  0  0  0  0  0  0  0  0  0  0  0
    7.4980  -14.4270    0.0000 O   0  0  0  0  0  0  0  0  0  0  0  0
    6.2110  -13.6570    0.0000 C   0  0  0  0  0  0  0  0  0  0  0  0
    4.9010  -14.3870    0.0000 C   0  0  0  0  0  0  0  0  0  0  0  0
   14.0130  -13.1450   -0.8900 H   0  0  0  0  0  0  0  0  0  0  0  0
   14.0130  -13.1450    0.8900 H   0  0  0  0  0  0  0  0  0  0  0  0
   12.6850  -15.1340    0.8900 H   0  0  0  0  0  0  0  0  0  0  0  0
   12.6850  -15.1340   -0.8900 H   0  0  0  0  0  0  0  0  0  0  0  0
   10.0870  -15.0950    0.8900 H   0  0  0  0  0  0  0  0  0  0  0  0
   10.0870  -15.0950   -0.8900 H   0  0  0  0  0  0  0  0  0  0  0  0
    8.8190  -13.0670   -0.8900 H   0  0  0  0  0  0  0  0  0  0  0  0
    8.8190  -13.0670    0.8900 H   0  0  0  0  0  0  0  0  0  0  0  0
    6.2210  -13.0280   -0.8900 H   0  0  0  0  0  0  0  0  0  0  0  0
    6.2210  -13.0280    0.8900 H   0  0  0  0  0  0  0  0  0  0  0  0
    4.8920  -15.0160    0.8900 H   0  0  0  0  0  0  0  0  0  0  0  0
    4.0410  -13.7170    0.0000 H   0  0  0  0  0  0  0  0  0  0  0  0
    4.8920  -15.0160   -0.8900 H   0  0  0  0  0  0  0  0  0  0  0  0
  1  2  1  0  0  0  0
  1 12  1  0  0  0  0
  1 13  1  0  0  0  0
  1 14  1  0  0  0  0
  2  3  1  0  0  0  0
  2 15  1  0  0  0  0
  2 16  1  0  0  0  0
  3  4  1  0  0  0  0
  3 17  1  0  0  0  0
  3 18  1  0  0  0  0
  4  5  1  0  0  0  0
  4 19  1  0  0  0  0
  5  6  1  0  0  0  0
  5 11  2  0  0  0  0
  6  7  2  0  0  0  0
  6 20  1  0  0  0  0
  7  8  1  0  0  0  0
  7 21  1  0  0  0  0
  8  9  1  0  0  0  0
  8 10  2  0  0  0  0
  9 24  1  0  0  0  0
 10 11  1  0  0  0  0
 10 22  1  0  0  0  0
 11 23  1  0  0  0  0
 24 25  1  0  0  0  0
 24 32  1  0  0  0  0
 24 33  1  0  0  0  0
 25 26  1  0  0  0  0
 25 34  1  0  0  0  0
 25 35  1  0  0  0  0
 26 27  1  0  0  0  0
 27 28  1  0  0  0  0
 27 36  1  0  0  0  0
 27 37  1  0  0  0  0
 28 29  1  0  0  0  0
 28 38  1  0  0  0  0
 28 39  1  0  0  0  0
 29 30  1  0  0  0  0
 30 31  1  0  0  0  0
 30 40  1  0  0  0  0
 30 41  1  0  0  0  0
 31 42  1  0  0  0  0
 31 43  1  0  0  0  0
 31 44  1  0  0  0  0
M  END
