4mxo_5.pdb
  MOE2019           3D

 42 43  0  0  0  0  0  0  0  0999 V2000
    0.6980  -13.6770    0.0000 C   0  0  0  0  0  0  0  0  0  0  0  0
    2.0730  -13.0770    0.0000 C   0  0  0  0  0  0  0  0  0  0  0  0
    3.3660  -13.8380    0.0000 N   0  0  0  0  0  0  0  0  0  0  0  0
    4.4890  -12.8430    0.0000 N   0  0  0  0  0  0  0  0  0  0  0  0
    3.8900  -11.4680    0.0000 N   0  0  0  0  0  0  0  0  0  0  0  0
    4.6500  -10.1740    0.0000 C   0  0  0  0  0  0  0  0  0  0  0  0
    6.1500  -10.1860    0.0000 C   0  0  0  0  0  0  0  0  0  0  0  0
    6.8900  -11.4910    0.0000 O   0  0  0  0  0  0  0  0  0  0  0  0
    6.9100   -8.8930    0.0000 N   0  0  0  0  0  0  0  0  0  0  0  0
    8.4100   -8.9050    0.0000 C   0  0  0  0  0  0  0  0  0  0  0  0
    9.1700   -7.6120    0.0000 C   0  0  0  0  0  0  0  0  0  0  0  0
   10.6700   -7.6230    0.0000 C   0  0  0  0  0  0  0  0  0  0  0  0
   11.4100   -8.9280    0.0000 C   0  0  0  0  0  0  0  0  0  0  0  0
   12.9100   -8.9400    0.0000 O   0  0  0  0  0  0  0  0  0  0  0  0
   10.6500  -10.2210    0.0000 C   0  0  0  0  0  0  0  0  0  0  0  0
    9.1500  -10.2100    0.0000 C   0  0  0  0  0  0  0  0  0  0  0  0
    2.3970  -11.6130    0.0000 C   0  0  0  0  0  0  0  0  0  0  0  0
    0.6270  -14.3020   -0.8900 H   0  0  0  0  0  0  0  0  0  0  0  0
   -0.0920  -12.9260    0.0000 H   0  0  0  0  0  0  0  0  0  0  0  0
    0.6270  -14.3020    0.8900 H   0  0  0  0  0  0  0  0  0  0  0  0
    4.3400   -9.6270    0.8900 H   0  0  0  0  0  0  0  0  0  0  0  0
    4.3400   -9.6270   -0.8900 H   0  0  0  0  0  0  0  0  0  0  0  0
    6.4120   -8.0140    0.0000 H   0  0  0  0  0  0  0  0  0  0  0  0
    8.6370   -6.6730    0.0000 H   0  0  0  0  0  0  0  0  0  0  0  0
   11.2170   -6.6920    0.0000 H   0  0  0  0  0  0  0  0  0  0  0  0
   11.1830  -11.1600    0.0000 H   0  0  0  0  0  0  0  0  0  0  0  0
    8.6030  -11.1410    0.0000 H   0  0  0  0  0  0  0  0  0  0  0  0
    1.6810  -10.8050    0.0000 H   0  0  0  0  0  0  0  0  0  0  0  0
   13.6500  -10.2450    0.0000 C   0  0  0  0  0  0  0  0  0  0  0  0
   13.3310  -10.7880    0.8900 H   0  0  0  0  0  0  0  0  0  0  0  0
   13.3310  -10.7880   -0.8900 H   0  0  0  0  0  0  0  0  0  0  0  0
   15.1490  -10.2570    0.0000 C   0  0  0  0  0  0  0  0  0  0  0  0
   15.8890  -11.5620    0.0000 O   0  0  0  0  0  0  0  0  0  0  0  0
   17.3890  -11.5730    0.0000 C   0  0  0  0  0  0  0  0  0  0  0  0
   18.1290  -12.8780    0.0000 C   0  0  0  0  0  0  0  0  0  0  0  0
   15.4680   -9.7140    0.8900 H   0  0  0  0  0  0  0  0  0  0  0  0
   15.4680   -9.7140   -0.8900 H   0  0  0  0  0  0  0  0  0  0  0  0
   17.7080  -11.0300    0.8900 H   0  0  0  0  0  0  0  0  0  0  0  0
   17.7080  -11.0300   -0.8900 H   0  0  0  0  0  0  0  0  0  0  0  0
   17.8100  -13.4210   -0.8900 H   0  0  0  0  0  0  0  0  0  0  0  0
   19.2120  -12.7510    0.0000 H   0  0  0  0  0  0  0  0  0  0  0  0
   17.8100  -13.4210    0.8900 H   0  0  0  0  0  0  0  0  0  0  0  0
  1  2  1  0  0  0  0
  1 18  1  0  0  0  0
  1 19  1  0  0  0  0
  1 20  1  0  0  0  0
  2  3  1  0  0  0  0
  2 17  2  0  0  0  0
  3  4  2  0  0  0  0
  4  5  1  0  0  0  0
  5  6  1  0  0  0  0
  5 17  1  0  0  0  0
  6  7  1  0  0  0  0
  6 21  1  0  0  0  0
  6 22  1  0  0  0  0
  7  8  2  0  0  0  0
  7  9  1  0  0  0  0
  9 10  1  0  0  0  0
  9 23  1  0  0  0  0
 10 11  1  0  0  0  0
 10 16  2  0  0  0  0
 11 12  2  0  0  0  0
 11 24  1  0  0  0  0
 12 13  1  0  0  0  0
 12 25  1  0  0  0  0
 13 14  1  0  0  0  0
 13 15  2  0  0  0  0
 14 29  1  0  0  0  0
 15 16  1  0  0  0  0
 15 26  1  0  0  0  0
 16 27  1  0  0  0  0
 17 28  1  0  0  0  0
 29 30  1  0  0  0  0
 29 31  1  0  0  0  0
 29 32  1  0  0  0  0
 32 33  1  0  0  0  0
 32 36  1  0  0  0  0
 32 37  1  0  0  0  0
 33 34  1  0  0  0  0
 34 35  1  0  0  0  0
 34 38  1  0  0  0  0
 34 39  1  0  0  0  0
 35 40  1  0  0  0  0
 35 41  1  0  0  0  0
 35 42  1  0  0  0  0
M  END
