4qnq_67.pdb
  MOE2019           3D

  8  7  0  0  0  0  0  0  0  0999 V2000
   27.2420  -24.2600    0.0000 C   0  0  0  0  0  0  0  0  0  0  0  0
   28.5440  -23.5140    0.0000 C   0  0  0  0  0  0  0  0  0  0  0  0
   27.2400  -24.8890   -0.8900 H   0  0  0  0  0  0  0  0  0  0  0  0
   27.2400  -24.8890    0.8900 H   0  0  0  0  0  0  0  0  0  0  0  0
   26.3740  -23.6000    0.0000 H   0  0  0  0  0  0  0  0  0  0  0  0
   28.5460  -22.8850    0.8900 H   0  0  0  0  0  0  0  0  0  0  0  0
   28.5460  -22.8850   -0.8900 H   0  0  0  0  0  0  0  0  0  0  0  0
   29.4120  -24.1740    0.0000 H   0  0  0  0  0  0  0  0  0  0  0  0
  1  2  1  0  0  0  0
  1  3  1  0  0  0  0
  1  4  1  0  0  0  0
  1  5  1  0  0  0  0
  2  6  1  0  0  0  0
  2  7  1  0  0  0  0
  2  8  1  0  0  0  0
M  END
