4qnq_12.pdb
  MOE2019           3D

 10  9  0  0  0  0  0  0  0  0999 V2000
   23.6030  -20.3250    0.0000 O   0  0  0  0  0  0  0  0  0  0  0  0
   22.6660  -20.5320    0.0000 H   0  0  0  0  0  0  0  0  0  0  0  0
   24.3540  -21.6240    0.0000 C   0  0  0  0  0  0  0  0  0  0  0  0
   25.8540  -21.6220    0.0000 C   0  0  0  0  0  0  0  0  0  0  0  0
   26.6050  -22.9210    0.0000 O   0  0  0  0  0  0  0  0  0  0  0  0
   27.5420  -22.7140    0.0000 H   0  0  0  0  0  0  0  0  0  0  0  0
   24.0400  -22.1690    0.8900 H   0  0  0  0  0  0  0  0  0  0  0  0
   24.0400  -22.1690   -0.8900 H   0  0  0  0  0  0  0  0  0  0  0  0
   26.1680  -21.0770    0.8900 H   0  0  0  0  0  0  0  0  0  0  0  0
   26.1680  -21.0770   -0.8900 H   0  0  0  0  0  0  0  0  0  0  0  0
  1  2  1  0  0  0  0
  1  3  1  0  0  0  0
  3  4  1  0  0  0  0
  3  7  1  0  0  0  0
  3  8  1  0  0  0  0
  4  5  1  0  0  0  0
  4  9  1  0  0  0  0
  4 10  1  0  0  0  0
  5  6  1  0  0  0  0
M  END
