4qnq_68.pdb
  MOE2019           3D

 11 10  0  0  0  0  0  0  0  0999 V2000
   27.4590  -20.0190    0.0000 C   0  0  0  0  0  0  0  0  0  0  0  0
   28.2040  -21.3210    0.0000 C   0  0  0  0  0  0  0  0  0  0  0  0
   29.7040  -21.3260    0.0000 C   0  0  0  0  0  0  0  0  0  0  0  0
   27.7760  -19.4750   -0.8900 H   0  0  0  0  0  0  0  0  0  0  0  0
   27.7760  -19.4750    0.8900 H   0  0  0  0  0  0  0  0  0  0  0  0
   26.3770  -20.1500    0.0000 H   0  0  0  0  0  0  0  0  0  0  0  0
   27.8870  -21.8650   -0.8900 H   0  0  0  0  0  0  0  0  0  0  0  0
   27.8870  -21.8650    0.8900 H   0  0  0  0  0  0  0  0  0  0  0  0
   30.0200  -20.7820    0.8900 H   0  0  0  0  0  0  0  0  0  0  0  0
   30.0200  -20.7820   -0.8900 H   0  0  0  0  0  0  0  0  0  0  0  0
   30.1260  -22.3310    0.0000 H   0  0  0  0  0  0  0  0  0  0  0  0
  1  2  1  0  0  0  0
  1  4  1  0  0  0  0
  1  5  1  0  0  0  0
  1  6  1  0  0  0  0
  2  3  1  0  0  0  0
  2  7  1  0  0  0  0
  2  8  1  0  0  0  0
  3  9  1  0  0  0  0
  3 10  1  0  0  0  0
  3 11  1  0  0  0  0
M  END
