4qnq_53.pdb
  MOE2019           3D

 22 21  0  0  0  0  0  0  0  0999 V2000
   23.8350  -10.6060    0.0000 C   0  0  0  0  0  0  0  0  0  0  0  0
   23.8350  -12.1060    0.0000 C   0  0  0  0  0  0  0  0  0  0  0  0
   25.1340  -12.8560    0.0000 O   0  0  0  0  0  0  0  0  0  0  0  0
   25.1340  -14.3560    0.0000 C   0  0  0  0  0  0  0  0  0  0  0  0
   26.4330  -15.1060    0.0000 C   0  0  0  0  0  0  0  0  0  0  0  0
   26.4330  -16.6060    0.0000 O   0  0  0  0  0  0  0  0  0  0  0  0
   27.7320  -17.3560    0.0000 C   0  0  0  0  0  0  0  0  0  0  0  0
   29.0310  -16.6060    0.0000 C   0  0  0  0  0  0  0  0  0  0  0  0
   24.3800  -10.2910   -0.8900 H   0  0  0  0  0  0  0  0  0  0  0  0
   24.3800  -10.2910    0.8900 H   0  0  0  0  0  0  0  0  0  0  0  0
   22.8310  -10.1820    0.0000 H   0  0  0  0  0  0  0  0  0  0  0  0
   23.2900  -12.4210   -0.8900 H   0  0  0  0  0  0  0  0  0  0  0  0
   23.2900  -12.4210    0.8900 H   0  0  0  0  0  0  0  0  0  0  0  0
   24.5890  -14.6710    0.8900 H   0  0  0  0  0  0  0  0  0  0  0  0
   24.5890  -14.6710   -0.8900 H   0  0  0  0  0  0  0  0  0  0  0  0
   26.9780  -14.7910    0.8900 H   0  0  0  0  0  0  0  0  0  0  0  0
   26.9780  -14.7910   -0.8900 H   0  0  0  0  0  0  0  0  0  0  0  0
   27.7320  -17.9850    0.8900 H   0  0  0  0  0  0  0  0  0  0  0  0
   27.7320  -17.9850   -0.8900 H   0  0  0  0  0  0  0  0  0  0  0  0
   29.0310  -15.9770    0.8900 H   0  0  0  0  0  0  0  0  0  0  0  0
   29.0310  -15.9770   -0.8900 H   0  0  0  0  0  0  0  0  0  0  0  0
   29.9010  -17.2630    0.0000 H   0  0  0  0  0  0  0  0  0  0  0  0
  1  2  1  0  0  0  0
  1  9  1  0  0  0  0
  1 10  1  0  0  0  0
  1 11  1  0  0  0  0
  2  3  1  0  0  0  0
  2 12  1  0  0  0  0
  2 13  1  0  0  0  0
  3  4  1  0  0  0  0
  4  5  1  0  0  0  0
  4 14  1  0  0  0  0
  4 15  1  0  0  0  0
  5  6  1  0  0  0  0
  5 16  1  0  0  0  0
  5 17  1  0  0  0  0
  6  7  1  0  0  0  0
  7  8  1  0  0  0  0
  7 18  1  0  0  0  0
  7 19  1  0  0  0  0
  8 20  1  0  0  0  0
  8 21  1  0  0  0  0
  8 22  1  0  0  0  0
M  END
