4qnq_7.pdb
  MOE2019           3D

 11 10  0  0  0  0  0  0  0  0999 V2000
    9.6010   21.9980    0.0000 C   0  0  0  0  0  0  0  0  0  0  0  0
    8.8510   20.6990    0.0000 C   0  0  0  0  0  0  0  0  0  0  0  0
    7.3510   20.6990    0.0000 C   0  0  0  0  0  0  0  0  0  0  0  0
    9.2860   22.5430    0.8900 H   0  0  0  0  0  0  0  0  0  0  0  0
    9.2860   22.5430   -0.8900 H   0  0  0  0  0  0  0  0  0  0  0  0
   10.6830   21.8640    0.0000 H   0  0  0  0  0  0  0  0  0  0  0  0
    9.1660   20.1540   -0.8900 H   0  0  0  0  0  0  0  0  0  0  0  0
    9.1660   20.1540    0.8900 H   0  0  0  0  0  0  0  0  0  0  0  0
    7.0360   21.2440   -0.8900 H   0  0  0  0  0  0  0  0  0  0  0  0
    7.0360   21.2440    0.8900 H   0  0  0  0  0  0  0  0  0  0  0  0
    6.9270   19.6950    0.0000 H   0  0  0  0  0  0  0  0  0  0  0  0
  1  2  1  0  0  0  0
  1  4  1  0  0  0  0
  1  5  1  0  0  0  0
  1  6  1  0  0  0  0
  2  3  1  0  0  0  0
  2  7  1  0  0  0  0
  2  8  1  0  0  0  0
  3  9  1  0  0  0  0
  3 10  1  0  0  0  0
  3 11  1  0  0  0  0
M  END
