4qnq_21.pdb
  MOE2019           3D

 23 22  0  0  0  0  0  0  0  0999 V2000
   21.5060   19.5240    0.0000 C   0  0  0  0  0  0  0  0  0  0  0  0
   23.0060   19.5240    0.0000 C   0  0  0  0  0  0  0  0  0  0  0  0
   23.7560   18.2250    0.0000 C   0  0  0  0  0  0  0  0  0  0  0  0
   25.2560   18.2250    0.0000 C   0  0  0  0  0  0  0  0  0  0  0  0
   26.0060   16.9260    0.0000 C   0  0  0  0  0  0  0  0  0  0  0  0
   27.5060   16.9260    0.0000 C   0  0  0  0  0  0  0  0  0  0  0  0
   28.2560   15.6270    0.0000 C   0  0  0  0  0  0  0  0  0  0  0  0
   21.1910   18.9790    0.8900 H   0  0  0  0  0  0  0  0  0  0  0  0
   21.1910   18.9790   -0.8900 H   0  0  0  0  0  0  0  0  0  0  0  0
   21.0820   20.5280    0.0000 H   0  0  0  0  0  0  0  0  0  0  0  0
   23.3210   20.0690   -0.8900 H   0  0  0  0  0  0  0  0  0  0  0  0
   23.3210   20.0690    0.8900 H   0  0  0  0  0  0  0  0  0  0  0  0
   23.4410   17.6800    0.8900 H   0  0  0  0  0  0  0  0  0  0  0  0
   23.4410   17.6800   -0.8900 H   0  0  0  0  0  0  0  0  0  0  0  0
   25.5710   18.7700   -0.8900 H   0  0  0  0  0  0  0  0  0  0  0  0
   25.5710   18.7700    0.8900 H   0  0  0  0  0  0  0  0  0  0  0  0
   25.6910   16.3810   -0.8900 H   0  0  0  0  0  0  0  0  0  0  0  0
   25.6910   16.3810    0.8900 H   0  0  0  0  0  0  0  0  0  0  0  0
   27.8210   17.4710    0.8900 H   0  0  0  0  0  0  0  0  0  0  0  0
   27.8210   17.4710   -0.8900 H   0  0  0  0  0  0  0  0  0  0  0  0
   27.9410   15.0820   -0.8900 H   0  0  0  0  0  0  0  0  0  0  0  0
   27.9410   15.0820    0.8900 H   0  0  0  0  0  0  0  0  0  0  0  0
   29.3380   15.7610    0.0000 H   0  0  0  0  0  0  0  0  0  0  0  0
  1  2  1  0  0  0  0
  1  8  1  0  0  0  0
  1  9  1  0  0  0  0
  1 10  1  0  0  0  0
  2  3  1  0  0  0  0
  2 11  1  0  0  0  0
  2 12  1  0  0  0  0
  3  4  1  0  0  0  0
  3 13  1  0  0  0  0
  3 14  1  0  0  0  0
  4  5  1  0  0  0  0
  4 15  1  0  0  0  0
  4 16  1  0  0  0  0
  5  6  1  0  0  0  0
  5 17  1  0  0  0  0
  5 18  1  0  0  0  0
  6  7  1  0  0  0  0
  6 19  1  0  0  0  0
  6 20  1  0  0  0  0
  7 21  1  0  0  0  0
  7 22  1  0  0  0  0
  7 23  1  0  0  0  0
M  END
