4qnq_52.pdb
  MOE2019           3D

 26 25  0  0  0  0  0  0  0  0999 V2000
   21.3930  -14.9080    0.0000 C   0  0  0  0  0  0  0  0  0  0  0  0
   22.8930  -14.9080    0.0000 C   0  0  0  0  0  0  0  0  0  0  0  0
   23.6430  -13.6090    0.0000 C   0  0  0  0  0  0  0  0  0  0  0  0
   25.1430  -13.6090    0.0000 C   0  0  0  0  0  0  0  0  0  0  0  0
   25.8930  -14.9080    0.0000 C   0  0  0  0  0  0  0  0  0  0  0  0
   27.3930  -14.9080    0.0000 C   0  0  0  0  0  0  0  0  0  0  0  0
   28.1430  -16.2070    0.0000 C   0  0  0  0  0  0  0  0  0  0  0  0
   29.6430  -16.2070    0.0000 C   0  0  0  0  0  0  0  0  0  0  0  0
   21.0780  -14.3630   -0.8900 H   0  0  0  0  0  0  0  0  0  0  0  0
   21.0780  -14.3630    0.8900 H   0  0  0  0  0  0  0  0  0  0  0  0
   20.9690  -15.9120    0.0000 H   0  0  0  0  0  0  0  0  0  0  0  0
   23.2080  -15.4530    0.8900 H   0  0  0  0  0  0  0  0  0  0  0  0
   23.2080  -15.4530   -0.8900 H   0  0  0  0  0  0  0  0  0  0  0  0
   23.3280  -13.0640   -0.8900 H   0  0  0  0  0  0  0  0  0  0  0  0
   23.3280  -13.0640    0.8900 H   0  0  0  0  0  0  0  0  0  0  0  0
   25.4580  -13.0640   -0.8900 H   0  0  0  0  0  0  0  0  0  0  0  0
   25.4580  -13.0640    0.8900 H   0  0  0  0  0  0  0  0  0  0  0  0
   25.5780  -15.4530   -0.8900 H   0  0  0  0  0  0  0  0  0  0  0  0
   25.5780  -15.4530    0.8900 H   0  0  0  0  0  0  0  0  0  0  0  0
   27.7080  -14.3630    0.8900 H   0  0  0  0  0  0  0  0  0  0  0  0
   27.7080  -14.3630   -0.8900 H   0  0  0  0  0  0  0  0  0  0  0  0
   27.8280  -16.7520   -0.8900 H   0  0  0  0  0  0  0  0  0  0  0  0
   27.8280  -16.7520    0.8900 H   0  0  0  0  0  0  0  0  0  0  0  0
   29.9580  -15.6620    0.8900 H   0  0  0  0  0  0  0  0  0  0  0  0
   29.9580  -15.6620   -0.8900 H   0  0  0  0  0  0  0  0  0  0  0  0
   30.0670  -17.2110    0.0000 H   0  0  0  0  0  0  0  0  0  0  0  0
  1  2  1  0  0  0  0
  1  9  1  0  0  0  0
  1 10  1  0  0  0  0
  1 11  1  0  0  0  0
  2  3  1  0  0  0  0
  2 12  1  0  0  0  0
  2 13  1  0  0  0  0
  3  4  1  0  0  0  0
  3 14  1  0  0  0  0
  3 15  1  0  0  0  0
  4  5  1  0  0  0  0
  4 16  1  0  0  0  0
  4 17  1  0  0  0  0
  5  6  1  0  0  0  0
  5 18  1  0  0  0  0
  5 19  1  0  0  0  0
  6  7  1  0  0  0  0
  6 20  1  0  0  0  0
  6 21  1  0  0  0  0
  7  8  1  0  0  0  0
  7 22  1  0  0  0  0
  7 23  1  0  0  0  0
  8 24  1  0  0  0  0
  8 25  1  0  0  0  0
  8 26  1  0  0  0  0
M  END
