4qnq_3.pdb
  MOE2019           3D

  5  4  0  0  0  0  0  0  0  0999 V2000
    7.0440  -23.1130    0.0000 C   0  0  0  0  0  0  0  0  0  0  0  0
    6.7300  -22.5680    0.8900 H   0  0  0  0  0  0  0  0  0  0  0  0
    6.7300  -22.5680   -0.8900 H   0  0  0  0  0  0  0  0  0  0  0  0
    6.6190  -24.1170    0.0000 H   0  0  0  0  0  0  0  0  0  0  0  0
    8.1300  -23.2020    0.0000 H   0  0  0  0  0  0  0  0  0  0  0  0
  1  2  1  0  0  0  0
  1  3  1  0  0  0  0
  1  4  1  0  0  0  0
  1  5  1  0  0  0  0
M  END
