4qnq_13.pdb
  MOE2019           3D

 13 12  0  0  0  0  0  0  0  0999 V2000
   20.3500  -15.2660    0.0000 O   0  0  0  0  0  0  0  0  0  0  0  0
   19.6410  -15.9130    0.0000 H   0  0  0  0  0  0  0  0  0  0  0  0
   21.6490  -16.0170    0.0000 C   0  0  0  0  0  0  0  0  0  0  0  0
   22.9480  -15.2690    0.0000 C   0  0  0  0  0  0  0  0  0  0  0  0
   24.2470  -16.0200    0.0000 C   0  0  0  0  0  0  0  0  0  0  0  0
   25.5460  -15.2710    0.0000 O   0  0  0  0  0  0  0  0  0  0  0  0
   26.2550  -15.9190    0.0000 H   0  0  0  0  0  0  0  0  0  0  0  0
   21.6480  -16.6460    0.8900 H   0  0  0  0  0  0  0  0  0  0  0  0
   21.6480  -16.6460   -0.8900 H   0  0  0  0  0  0  0  0  0  0  0  0
   22.9490  -14.6400   -0.8900 H   0  0  0  0  0  0  0  0  0  0  0  0
   22.9490  -14.6400    0.8900 H   0  0  0  0  0  0  0  0  0  0  0  0
   24.2470  -16.6490   -0.8900 H   0  0  0  0  0  0  0  0  0  0  0  0
   24.2470  -16.6490    0.8900 H   0  0  0  0  0  0  0  0  0  0  0  0
  1  2  1  0  0  0  0
  1  3  1  0  0  0  0
  3  4  1  0  0  0  0
  3  8  1  0  0  0  0
  3  9  1  0  0  0  0
  4  5  1  0  0  0  0
  4 10  1  0  0  0  0
  4 11  1  0  0  0  0
  5  6  1  0  0  0  0
  5 12  1  0  0  0  0
  5 13  1  0  0  0  0
  6  7  1  0  0  0  0
M  END
