4qnq_59.pdb
  MOE2019           3D

  8  7  0  0  0  0  0  0  0  0999 V2000
   20.2000   28.4290    0.0000 C   0  0  0  0  0  0  0  0  0  0  0  0
   21.5000   27.6800    0.0000 C   0  0  0  0  0  0  0  0  0  0  0  0
   20.2000   29.0580    0.8900 H   0  0  0  0  0  0  0  0  0  0  0  0
   20.2000   29.0580   -0.8900 H   0  0  0  0  0  0  0  0  0  0  0  0
   19.3310   27.7720    0.0000 H   0  0  0  0  0  0  0  0  0  0  0  0
   21.5010   27.0510   -0.8900 H   0  0  0  0  0  0  0  0  0  0  0  0
   21.5010   27.0510    0.8900 H   0  0  0  0  0  0  0  0  0  0  0  0
   22.3690   28.3380    0.0000 H   0  0  0  0  0  0  0  0  0  0  0  0
  1  2  1  0  0  0  0
  1  3  1  0  0  0  0
  1  4  1  0  0  0  0
  1  5  1  0  0  0  0
  2  6  1  0  0  0  0
  2  7  1  0  0  0  0
  2  8  1  0  0  0  0
M  END
