4xuf_2.pdb
  MOE2019           3D

 76 76  0  0  0  0  0  0  0  0999 V2000
  -26.7330   15.4420    0.0000 O   0  0  0  0  0  0  0  0  0  0  0  0
  -26.7380   14.8830    0.7810 H   0  0  0  0  0  0  0  0  0  0  0  0
  -25.4440   16.2090    0.0000 C   0  0  0  0  0  0  0  0  0  0  0  0
  -24.1350   15.4760    0.0000 C   0  0  0  0  0  0  0  0  0  0  0  0
  -22.8460   16.2430    0.0000 N   0  0  0  0  0  0  0  0  0  0  0  0
  -21.5370   15.5110    0.0000 C   0  0  0  0  0  0  0  0  0  0  0  0
  -20.2480   16.2780    0.0000 C   0  0  0  0  0  0  0  0  0  0  0  0
  -20.2680   17.7780    0.0000 N   0  0  0  0  0  0  0  0  0  0  0  0
  -18.9790   18.5450    0.0000 C   0  0  0  0  0  0  0  0  0  0  0  0
  -18.9990   20.0450    0.0000 O   0  0  0  0  0  0  0  0  0  0  0  0
  -17.6700   17.8130    0.0000 C   0  0  0  0  0  0  0  0  0  0  0  0
  -16.3810   18.5800    0.0000 C   0  0  0  0  0  0  0  0  0  0  0  0
  -15.0720   17.8470    0.0000 C   0  0  0  0  0  0  0  0  0  0  0  0
  -15.0520   16.3470    0.0000 O   0  0  0  0  0  0  0  0  0  0  0  0
  -13.7830   18.6140    0.0000 N   0  0  0  0  0  0  0  0  0  0  0  0
  -12.4750   17.8820    0.0000 C   0  0  0  0  0  0  0  0  0  0  0  0
  -11.1860   18.6490    0.0000 C   0  0  0  0  0  0  0  0  0  0  0  0
   -9.8770   17.9160    0.0000 C   0  0  0  0  0  0  0  0  0  0  0  0
   -8.5880   18.6840    0.0000 O   0  0  0  0  0  0  0  0  0  0  0  0
   -7.2790   17.9510    0.0000 C   0  0  0  0  0  0  0  0  0  0  0  0
   -5.9900   18.7180    0.0000 C   0  0  0  0  0  0  0  0  0  0  0  0
   -4.6810   17.9860    0.0000 O   0  0  0  0  0  0  0  0  0  0  0  0
   -3.3920   18.7530    0.0000 C   0  0  0  0  0  0  0  0  0  0  0  0
   -2.0830   18.0200    0.0000 C   0  0  0  0  0  0  0  0  0  0  0  0
   -0.7940   18.7880    0.0000 O   0  0  0  0  0  0  0  0  0  0  0  0
    0.5150   18.0550    0.0000 C   0  0  0  0  0  0  0  0  0  0  0  0
    0.5350   16.5550    0.0000 C   0  0  0  0  0  0  0  0  0  0  0  0
    1.8440   15.8220    0.0000 C   0  0  0  0  0  0  0  0  0  0  0  0
    1.8640   14.3230    0.0000 N   0  0  0  0  0  0  0  0  0  0  0  0
    3.1720   13.5900    0.0000 C   0  0  0  0  0  0  0  0  0  0  0  0
    4.4610   14.3570    0.0000 O   0  0  0  0  0  0  0  0  0  0  0  0
    3.1920   12.0900    0.0000 C   0  0  0  0  0  0  0  0  0  0  0  0
    4.5010   11.3570    0.0000 O   0  0  0  0  0  0  0  0  0  0  0  0
    4.9880   11.6320   -0.7800 H   0  0  0  0  0  0  0  0  0  0  0  0
  -21.5770   18.5110    0.0000 C   0  0  0  0  0  0  0  0  0  0  0  0
  -22.8660   17.7430    0.0000 C   0  0  0  0  0  0  0  0  0  0  0  0
  -25.4520   16.8380    0.8900 H   0  0  0  0  0  0  0  0  0  0  0  0
  -25.4520   16.8380   -0.8900 H   0  0  0  0  0  0  0  0  0  0  0  0
  -24.1270   14.8470   -0.8900 H   0  0  0  0  0  0  0  0  0  0  0  0
  -24.1270   14.8470    0.8900 H   0  0  0  0  0  0  0  0  0  0  0  0
  -21.5290   14.8820   -0.8900 H   0  0  0  0  0  0  0  0  0  0  0  0
  -21.5290   14.8820    0.8900 H   0  0  0  0  0  0  0  0  0  0  0  0
  -19.6990   15.9710   -0.8900 H   0  0  0  0  0  0  0  0  0  0  0  0
  -19.6990   15.9710    0.8900 H   0  0  0  0  0  0  0  0  0  0  0  0
  -17.6620   17.1840   -0.8900 H   0  0  0  0  0  0  0  0  0  0  0  0
  -17.6620   17.1840    0.8900 H   0  0  0  0  0  0  0  0  0  0  0  0
  -16.3890   19.2090    0.8900 H   0  0  0  0  0  0  0  0  0  0  0  0
  -16.3890   19.2090   -0.8900 H   0  0  0  0  0  0  0  0  0  0  0  0
  -13.7960   19.6240    0.0000 H   0  0  0  0  0  0  0  0  0  0  0  0
  -12.4670   17.2530   -0.8900 H   0  0  0  0  0  0  0  0  0  0  0  0
  -12.4670   17.2530    0.8900 H   0  0  0  0  0  0  0  0  0  0  0  0
  -11.1940   19.2780    0.8900 H   0  0  0  0  0  0  0  0  0  0  0  0
  -11.1940   19.2780   -0.8900 H   0  0  0  0  0  0  0  0  0  0  0  0
   -9.8690   17.2870   -0.8900 H   0  0  0  0  0  0  0  0  0  0  0  0
   -9.8690   17.2870    0.8900 H   0  0  0  0  0  0  0  0  0  0  0  0
   -7.2710   17.3220   -0.8900 H   0  0  0  0  0  0  0  0  0  0  0  0
   -7.2710   17.3220    0.8900 H   0  0  0  0  0  0  0  0  0  0  0  0
   -5.9980   19.3470    0.8900 H   0  0  0  0  0  0  0  0  0  0  0  0
   -5.9980   19.3470   -0.8900 H   0  0  0  0  0  0  0  0  0  0  0  0
   -3.4000   19.3820    0.8900 H   0  0  0  0  0  0  0  0  0  0  0  0
   -3.4000   19.3820   -0.8900 H   0  0  0  0  0  0  0  0  0  0  0  0
   -2.0750   17.3910   -0.8900 H   0  0  0  0  0  0  0  0  0  0  0  0
   -2.0750   17.3910    0.8900 H   0  0  0  0  0  0  0  0  0  0  0  0
    1.0560   18.3770    0.8900 H   0  0  0  0  0  0  0  0  0  0  0  0
    1.0560   18.3770   -0.8900 H   0  0  0  0  0  0  0  0  0  0  0  0
   -0.0060   16.2330   -0.8900 H   0  0  0  0  0  0  0  0  0  0  0  0
   -0.0060   16.2330    0.8900 H   0  0  0  0  0  0  0  0  0  0  0  0
    2.3850   16.1440    0.8900 H   0  0  0  0  0  0  0  0  0  0  0  0
    2.3850   16.1440   -0.8900 H   0  0  0  0  0  0  0  0  0  0  0  0
    0.9960   13.8070    0.0000 H   0  0  0  0  0  0  0  0  0  0  0  0
    2.6510   11.7680   -0.8900 H   0  0  0  0  0  0  0  0  0  0  0  0
    2.6510   11.7680    0.8900 H   0  0  0  0  0  0  0  0  0  0  0  0
  -21.5850   19.1400   -0.8900 H   0  0  0  0  0  0  0  0  0  0  0  0
  -21.5850   19.1400    0.8900 H   0  0  0  0  0  0  0  0  0  0  0  0
  -23.4150   18.0500    0.8900 H   0  0  0  0  0  0  0  0  0  0  0  0
  -23.4150   18.0500   -0.8900 H   0  0  0  0  0  0  0  0  0  0  0  0
  1  2  1  0  0  0  0
  1  3  1  0  0  0  0
  3  4  1  0  0  0  0
  3 37  1  0  0  0  0
  3 38  1  0  0  0  0
  4  5  1  0  0  0  0
  4 39  1  0  0  0  0
  4 40  1  0  0  0  0
  5  6  1  0  0  0  0
  5 36  1  0  0  0  0
  6  7  1  0  0  0  0
  6 41  1  0  0  0  0
  6 42  1  0  0  0  0
  7  8  1  0  0  0  0
  7 43  1  0  0  0  0
  7 44  1  0  0  0  0
  8  9  1  0  0  0  0
  8 35  1  0  0  0  0
  9 10  2  0  0  0  0
  9 11  1  0  0  0  0
 11 12  1  0  0  0  0
 11 45  1  0  0  0  0
 11 46  1  0  0  0  0
 12 13  1  0  0  0  0
 12 47  1  0  0  0  0
 12 48  1  0  0  0  0
 13 14  2  0  0  0  0
 13 15  1  0  0  0  0
 15 16  1  0  0  0  0
 15 49  1  0  0  0  0
 16 17  1  0  0  0  0
 16 50  1  0  0  0  0
 16 51  1  0  0  0  0
 17 18  1  0  0  0  0
 17 52  1  0  0  0  0
 17 53  1  0  0  0  0
 18 19  1  0  0  0  0
 18 54  1  0  0  0  0
 18 55  1  0  0  0  0
 19 20  1  0  0  0  0
 20 21  1  0  0  0  0
 20 56  1  0  0  0  0
 20 57  1  0  0  0  0
 21 22  1  0  0  0  0
 21 58  1  0  0  0  0
 21 59  1  0  0  0  0
 22 23  1  0  0  0  0
 23 24  1  0  0  0  0
 23 60  1  0  0  0  0
 23 61  1  0  0  0  0
 24 25  1  0  0  0  0
 24 62  1  0  0  0  0
 24 63  1  0  0  0  0
 25 26  1  0  0  0  0
 26 27  1  0  0  0  0
 26 64  1  0  0  0  0
 26 65  1  0  0  0  0
 27 28  1  0  0  0  0
 27 66  1  0  0  0  0
 27 67  1  0  0  0  0
 28 29  1  0  0  0  0
 28 68  1  0  0  0  0
 28 69  1  0  0  0  0
 29 30  1  0  0  0  0
 29 70  1  0  0  0  0
 30 31  2  0  0  0  0
 30 32  1  0  0  0  0
 32 33  1  0  0  0  0
 32 71  1  0  0  0  0
 32 72  1  0  0  0  0
 33 34  1  0  0  0  0
 35 36  1  0  0  0  0
 35 73  1  0  0  0  0
 35 74  1  0  0  0  0
 36 75  1  0  0  0  0
 36 76  1  0  0  0  0
M  END
