5e80_5.pdb
  MOE2019           3D

 20 19  0  0  0  0  0  0  0  0999 V2000
    0.7350   -3.5800    0.0000 C   0  0  0  0  0  0  0  0  0  0  0  0
   -0.5640   -4.3300    0.0000 C   0  0  0  0  0  0  0  0  0  0  0  0
   -1.8630   -3.5800    0.0000 C   0  0  0  0  0  0  0  0  0  0  0  0
   -3.1620   -4.3300    0.0000 C   0  0  0  0  0  0  0  0  0  0  0  0
   -4.4610   -3.5800    0.0000 C   0  0  0  0  0  0  0  0  0  0  0  0
   -5.7600   -4.3300    0.0000 C   0  0  0  0  0  0  0  0  0  0  0  0
    0.7350   -2.9510   -0.8900 H   0  0  0  0  0  0  0  0  0  0  0  0
    1.6050   -4.2370    0.0000 H   0  0  0  0  0  0  0  0  0  0  0  0
    0.7350   -2.9510    0.8900 H   0  0  0  0  0  0  0  0  0  0  0  0
   -0.5640   -4.9590    0.8900 H   0  0  0  0  0  0  0  0  0  0  0  0
   -0.5640   -4.9590   -0.8900 H   0  0  0  0  0  0  0  0  0  0  0  0
   -1.8630   -2.9510   -0.8900 H   0  0  0  0  0  0  0  0  0  0  0  0
   -1.8630   -2.9510    0.8900 H   0  0  0  0  0  0  0  0  0  0  0  0
   -3.1620   -4.9590    0.8900 H   0  0  0  0  0  0  0  0  0  0  0  0
   -3.1620   -4.9590   -0.8900 H   0  0  0  0  0  0  0  0  0  0  0  0
   -4.4610   -2.9510   -0.8900 H   0  0  0  0  0  0  0  0  0  0  0  0
   -4.4610   -2.9510    0.8900 H   0  0  0  0  0  0  0  0  0  0  0  0
   -5.7600   -4.9590    0.8900 H   0  0  0  0  0  0  0  0  0  0  0  0
   -6.6300   -3.6730    0.0000 H   0  0  0  0  0  0  0  0  0  0  0  0
   -5.7600   -4.9590   -0.8900 H   0  0  0  0  0  0  0  0  0  0  0  0
  1  2  1  0  0  0  0
  1  7  1  0  0  0  0
  1  8  1  0  0  0  0
  1  9  1  0  0  0  0
  2  3  1  0  0  0  0
  2 10  1  0  0  0  0
  2 11  1  0  0  0  0
  3  4  1  0  0  0  0
  3 12  1  0  0  0  0
  3 13  1  0  0  0  0
  4  5  1  0  0  0  0
  4 14  1  0  0  0  0
  4 15  1  0  0  0  0
  5  6  1  0  0  0  0
  5 16  1  0  0  0  0
  5 17  1  0  0  0  0
  6 18  1  0  0  0  0
  6 19  1  0  0  0  0
  6 20  1  0  0  0  0
M  END
