5e80_2.pdb
  MOE2019           3D

 11 10  0  0  0  0  0  0  0  0999 V2000
    0.2970    0.1340    0.0000 C   0  0  0  0  0  0  0  0  0  0  0  0
   -1.0020    0.8840    0.0000 C   0  0  0  0  0  0  0  0  0  0  0  0
   -2.3010    0.1340    0.0000 C   0  0  0  0  0  0  0  0  0  0  0  0
    0.2970   -0.4950    0.8900 H   0  0  0  0  0  0  0  0  0  0  0  0
    1.1670    0.7910    0.0000 H   0  0  0  0  0  0  0  0  0  0  0  0
    0.2970   -0.4950   -0.8900 H   0  0  0  0  0  0  0  0  0  0  0  0
   -1.0020    1.5130   -0.8900 H   0  0  0  0  0  0  0  0  0  0  0  0
   -1.0020    1.5130    0.8900 H   0  0  0  0  0  0  0  0  0  0  0  0
   -2.3010   -0.4950    0.8900 H   0  0  0  0  0  0  0  0  0  0  0  0
   -3.1710    0.7910    0.0000 H   0  0  0  0  0  0  0  0  0  0  0  0
   -2.3010   -0.4950   -0.8900 H   0  0  0  0  0  0  0  0  0  0  0  0
  1  2  1  0  0  0  0
  1  4  1  0  0  0  0
  1  5  1  0  0  0  0
  1  6  1  0  0  0  0
  2  3  1  0  0  0  0
  2  7  1  0  0  0  0
  2  8  1  0  0  0  0
  3  9  1  0  0  0  0
  3 10  1  0  0  0  0
  3 11  1  0  0  0  0
M  END
