5edu_1.pdb
  MOE2019           3D

 17 17  0  0  0  0  0  0  0  0999 V2000
   11.2870    9.4300    0.0000 C   0  0  0  0  0  0  0  0  0  0  0  0
    9.9580    8.7350    0.0000 C   0  0  0  0  0  0  0  0  0  0  0  0
    8.6910    9.5380    0.0000 N   0  0  0  0  0  0  0  0  0  0  0  0
    8.5970   11.0350    0.0000 N   0  0  0  0  0  0  0  0  0  0  0  0
    7.1440   11.4080    0.0000 N   0  0  0  0  0  0  0  0  0  0  0  0
    6.3400   10.1420    0.0000 C   0  0  0  0  0  0  0  0  0  0  0  0
    4.8430   10.0480    0.0000 C   0  0  0  0  0  0  0  0  0  0  0  0
    7.2960    8.9860    0.0000 C   0  0  0  0  0  0  0  0  0  0  0  0
   11.3130   10.0590    0.8900 H   0  0  0  0  0  0  0  0  0  0  0  0
   11.3130   10.0590   -0.8900 H   0  0  0  0  0  0  0  0  0  0  0  0
   12.1280    8.7370    0.0000 H   0  0  0  0  0  0  0  0  0  0  0  0
    9.9320    8.1060    0.8900 H   0  0  0  0  0  0  0  0  0  0  0  0
    9.9320    8.1060   -0.8900 H   0  0  0  0  0  0  0  0  0  0  0  0
    4.5630    9.4840    0.8900 H   0  0  0  0  0  0  0  0  0  0  0  0
    4.5630    9.4840   -0.8900 H   0  0  0  0  0  0  0  0  0  0  0  0
    4.3570   11.0240    0.0000 H   0  0  0  0  0  0  0  0  0  0  0  0
    7.0270    7.9400    0.0000 H   0  0  0  0  0  0  0  0  0  0  0  0
  1  2  1  0  0  0  0
  1  9  1  0  0  0  0
  1 10  1  0  0  0  0
  1 11  1  0  0  0  0
  2  3  1  0  0  0  0
  2 12  1  0  0  0  0
  2 13  1  0  0  0  0
  3  4  1  0  0  0  0
  3  8  1  0  0  0  0
  4  5  2  0  0  0  0
  5  6  1  0  0  0  0
  6  7  1  0  0  0  0
  6  8  2  0  0  0  0
  7 14  1  0  0  0  0
  7 15  1  0  0  0  0
  7 16  1  0  0  0  0
  8 17  1  0  0  0  0
M  END
