5edu_4.pdb
  MOE2019           3D

 38 38  0  0  0  0  0  0  0  0999 V2000
   20.7950  -24.5300    0.0000 C   0  0  0  0  0  0  0  0  0  0  0  0
   19.2960  -24.4790    0.0000 C   0  0  0  0  0  0  0  0  0  0  0  0
   18.5900  -23.1550    0.0000 O   0  0  0  0  0  0  0  0  0  0  0  0
   17.0910  -23.1040    0.0000 C   0  0  0  0  0  0  0  0  0  0  0  0
   16.3860  -21.7810    0.0000 C   0  0  0  0  0  0  0  0  0  0  0  0
   14.8860  -21.7300    0.0000 O   0  0  0  0  0  0  0  0  0  0  0  0
   14.1810  -20.4060    0.0000 C   0  0  0  0  0  0  0  0  0  0  0  0
   12.6820  -20.3550    0.0000 C   0  0  0  0  0  0  0  0  0  0  0  0
   11.9760  -19.0310    0.0000 O   0  0  0  0  0  0  0  0  0  0  0  0
   10.4770  -18.9800    0.0000 C   0  0  0  0  0  0  0  0  0  0  0  0
    9.7720  -17.6570    0.0000 C   0  0  0  0  0  0  0  0  0  0  0  0
    8.2730  -17.6060    0.0000 N   0  0  0  0  0  0  0  0  0  0  0  0
    7.4330  -16.3630    0.0000 N   0  0  0  0  0  0  0  0  0  0  0  0
    5.9910  -16.7780    0.0000 N   0  0  0  0  0  0  0  0  0  0  0  0
    5.9400  -18.2770    0.0000 C   0  0  0  0  0  0  0  0  0  0  0  0
    4.6970  -19.1170    0.0000 C   0  0  0  0  0  0  0  0  0  0  0  0
    7.3500  -18.7890    0.0000 C   0  0  0  0  0  0  0  0  0  0  0  0
   21.1280  -23.9960    0.8900 H   0  0  0  0  0  0  0  0  0  0  0  0
   21.1280  -23.9960   -0.8900 H   0  0  0  0  0  0  0  0  0  0  0  0
   21.1850  -25.5480    0.0000 H   0  0  0  0  0  0  0  0  0  0  0  0
   18.9630  -25.0130    0.8900 H   0  0  0  0  0  0  0  0  0  0  0  0
   18.9630  -25.0130   -0.8900 H   0  0  0  0  0  0  0  0  0  0  0  0
   16.7580  -23.6380   -0.8900 H   0  0  0  0  0  0  0  0  0  0  0  0
   16.7580  -23.6380    0.8900 H   0  0  0  0  0  0  0  0  0  0  0  0
   16.7190  -21.2470   -0.8900 H   0  0  0  0  0  0  0  0  0  0  0  0
   16.7190  -21.2470    0.8900 H   0  0  0  0  0  0  0  0  0  0  0  0
   14.5140  -19.8720    0.8900 H   0  0  0  0  0  0  0  0  0  0  0  0
   14.5140  -19.8720   -0.8900 H   0  0  0  0  0  0  0  0  0  0  0  0
   12.3490  -20.8890    0.8900 H   0  0  0  0  0  0  0  0  0  0  0  0
   12.3490  -20.8890   -0.8900 H   0  0  0  0  0  0  0  0  0  0  0  0
   10.1440  -19.5140   -0.8900 H   0  0  0  0  0  0  0  0  0  0  0  0
   10.1440  -19.5140    0.8900 H   0  0  0  0  0  0  0  0  0  0  0  0
   10.1050  -17.1230   -0.8900 H   0  0  0  0  0  0  0  0  0  0  0  0
   10.1050  -17.1230    0.8900 H   0  0  0  0  0  0  0  0  0  0  0  0
    4.7410  -19.7450    0.8900 H   0  0  0  0  0  0  0  0  0  0  0  0
    4.7410  -19.7450   -0.8900 H   0  0  0  0  0  0  0  0  0  0  0  0
    3.7840  -18.5220    0.0000 H   0  0  0  0  0  0  0  0  0  0  0  0
    7.6480  -19.8270    0.0000 H   0  0  0  0  0  0  0  0  0  0  0  0
  1  2  1  0  0  0  0
  1 18  1  0  0  0  0
  1 19  1  0  0  0  0
  1 20  1  0  0  0  0
  2  3  1  0  0  0  0
  2 21  1  0  0  0  0
  2 22  1  0  0  0  0
  3  4  1  0  0  0  0
  4  5  1  0  0  0  0
  4 23  1  0  0  0  0
  4 24  1  0  0  0  0
  5  6  1  0  0  0  0
  5 25  1  0  0  0  0
  5 26  1  0  0  0  0
  6  7  1  0  0  0  0
  7  8  1  0  0  0  0
  7 27  1  0  0  0  0
  7 28  1  0  0  0  0
  8  9  1  0  0  0  0
  8 29  1  0  0  0  0
  8 30  1  0  0  0  0
  9 10  1  0  0  0  0
 10 11  1  0  0  0  0
 10 31  1  0  0  0  0
 10 32  1  0  0  0  0
 11 12  1  0  0  0  0
 11 33  1  0  0  0  0
 11 34  1  0  0  0  0
 12 13  1  0  0  0  0
 12 17  1  0  0  0  0
 13 14  2  0  0  0  0
 14 15  1  0  0  0  0
 15 16  1  0  0  0  0
 15 17  2  0  0  0  0
 16 35  1  0  0  0  0
 16 36  1  0  0  0  0
 16 37  1  0  0  0  0
 17 38  1  0  0  0  0
M  END
