5ehr_7.pdb
  MOE2019           3D

 23 22  0  0  0  0  0  0  0  0999 V2000
   -4.4200    2.7370    0.0000 C   0  0  0  0  0  0  0  0  0  0  0  0
   -5.9200    2.7370    0.0000 C   0  0  0  0  0  0  0  0  0  0  0  0
   -6.6700    4.0360    0.0000 C   0  0  0  0  0  0  0  0  0  0  0  0
   -8.1700    4.0360    0.0000 C   0  0  0  0  0  0  0  0  0  0  0  0
   -8.9200    5.3350    0.0000 C   0  0  0  0  0  0  0  0  0  0  0  0
  -10.4200    5.3350    0.0000 C   0  0  0  0  0  0  0  0  0  0  0  0
  -11.1700    6.6340    0.0000 C   0  0  0  0  0  0  0  0  0  0  0  0
   -4.1050    3.2820    0.8900 H   0  0  0  0  0  0  0  0  0  0  0  0
   -3.9960    1.7330    0.0000 H   0  0  0  0  0  0  0  0  0  0  0  0
   -4.1050    3.2820   -0.8900 H   0  0  0  0  0  0  0  0  0  0  0  0
   -6.2350    2.1920   -0.8900 H   0  0  0  0  0  0  0  0  0  0  0  0
   -6.2350    2.1920    0.8900 H   0  0  0  0  0  0  0  0  0  0  0  0
   -6.3550    4.5810    0.8900 H   0  0  0  0  0  0  0  0  0  0  0  0
   -6.3550    4.5810   -0.8900 H   0  0  0  0  0  0  0  0  0  0  0  0
   -8.4850    3.4910   -0.8900 H   0  0  0  0  0  0  0  0  0  0  0  0
   -8.4850    3.4910    0.8900 H   0  0  0  0  0  0  0  0  0  0  0  0
   -8.6050    5.8800   -0.8900 H   0  0  0  0  0  0  0  0  0  0  0  0
   -8.6050    5.8800    0.8900 H   0  0  0  0  0  0  0  0  0  0  0  0
  -10.7350    4.7900    0.8900 H   0  0  0  0  0  0  0  0  0  0  0  0
  -10.7350    4.7900   -0.8900 H   0  0  0  0  0  0  0  0  0  0  0  0
  -10.8550    7.1790   -0.8900 H   0  0  0  0  0  0  0  0  0  0  0  0
  -10.8550    7.1790    0.8900 H   0  0  0  0  0  0  0  0  0  0  0  0
  -12.2520    6.5000    0.0000 H   0  0  0  0  0  0  0  0  0  0  0  0
  1  2  1  0  0  0  0
  1  8  1  0  0  0  0
  1  9  1  0  0  0  0
  1 10  1  0  0  0  0
  2  3  1  0  0  0  0
  2 11  1  0  0  0  0
  2 12  1  0  0  0  0
  3  4  1  0  0  0  0
  3 13  1  0  0  0  0
  3 14  1  0  0  0  0
  4  5  1  0  0  0  0
  4 15  1  0  0  0  0
  4 16  1  0  0  0  0
  5  6  1  0  0  0  0
  5 17  1  0  0  0  0
  5 18  1  0  0  0  0
  6  7  1  0  0  0  0
  6 19  1  0  0  0  0
  6 20  1  0  0  0  0
  7 21  1  0  0  0  0
  7 22  1  0  0  0  0
  7 23  1  0  0  0  0
M  END
