5ehr_10.pdb
  MOE2019           3D

 32 31  0  0  0  0  0  0  0  0999 V2000
    8.5300  -16.3240    0.0000 C   0  0  0  0  0  0  0  0  0  0  0  0
    7.2310  -17.0740    0.0000 C   0  0  0  0  0  0  0  0  0  0  0  0
    5.9320  -16.3240    0.0000 C   0  0  0  0  0  0  0  0  0  0  0  0
    4.6330  -17.0740    0.0000 C   0  0  0  0  0  0  0  0  0  0  0  0
    3.3340  -16.3240    0.0000 C   0  0  0  0  0  0  0  0  0  0  0  0
    2.0350  -17.0740    0.0000 C   0  0  0  0  0  0  0  0  0  0  0  0
    0.7360  -16.3240    0.0000 C   0  0  0  0  0  0  0  0  0  0  0  0
   -0.5630  -17.0740    0.0000 C   0  0  0  0  0  0  0  0  0  0  0  0
   -1.8620  -16.3240    0.0000 C   0  0  0  0  0  0  0  0  0  0  0  0
   -3.1610  -17.0740    0.0000 C   0  0  0  0  0  0  0  0  0  0  0  0
    8.5300  -15.6950    0.8900 H   0  0  0  0  0  0  0  0  0  0  0  0
    9.4000  -16.9810    0.0000 H   0  0  0  0  0  0  0  0  0  0  0  0
    8.5300  -15.6950   -0.8900 H   0  0  0  0  0  0  0  0  0  0  0  0
    7.2310  -17.7030   -0.8900 H   0  0  0  0  0  0  0  0  0  0  0  0
    7.2310  -17.7030    0.8900 H   0  0  0  0  0  0  0  0  0  0  0  0
    5.9320  -15.6950    0.8900 H   0  0  0  0  0  0  0  0  0  0  0  0
    5.9320  -15.6950   -0.8900 H   0  0  0  0  0  0  0  0  0  0  0  0
    4.6330  -17.7030   -0.8900 H   0  0  0  0  0  0  0  0  0  0  0  0
    4.6330  -17.7030    0.8900 H   0  0  0  0  0  0  0  0  0  0  0  0
    3.3340  -15.6950    0.8900 H   0  0  0  0  0  0  0  0  0  0  0  0
    3.3340  -15.6950   -0.8900 H   0  0  0  0  0  0  0  0  0  0  0  0
    2.0350  -17.7030   -0.8900 H   0  0  0  0  0  0  0  0  0  0  0  0
    2.0350  -17.7030    0.8900 H   0  0  0  0  0  0  0  0  0  0  0  0
    0.7360  -15.6950   -0.8900 H   0  0  0  0  0  0  0  0  0  0  0  0
    0.7360  -15.6950    0.8900 H   0  0  0  0  0  0  0  0  0  0  0  0
   -0.5630  -17.7030    0.8900 H   0  0  0  0  0  0  0  0  0  0  0  0
   -0.5630  -17.7030   -0.8900 H   0  0  0  0  0  0  0  0  0  0  0  0
   -1.8620  -15.6950   -0.8900 H   0  0  0  0  0  0  0  0  0  0  0  0
   -1.8620  -15.6950    0.8900 H   0  0  0  0  0  0  0  0  0  0  0  0
   -3.1610  -17.7030    0.8900 H   0  0  0  0  0  0  0  0  0  0  0  0
   -3.1610  -17.7030   -0.8900 H   0  0  0  0  0  0  0  0  0  0  0  0
   -4.0310  -16.4170    0.0000 H   0  0  0  0  0  0  0  0  0  0  0  0
  1  2  1  0  0  0  0
  1 11  1  0  0  0  0
  1 12  1  0  0  0  0
  1 13  1  0  0  0  0
  2  3  1  0  0  0  0
  2 14  1  0  0  0  0
  2 15  1  0  0  0  0
  3  4  1  0  0  0  0
  3 16  1  0  0  0  0
  3 17  1  0  0  0  0
  4  5  1  0  0  0  0
  4 18  1  0  0  0  0
  4 19  1  0  0  0  0
  5  6  1  0  0  0  0
  5 20  1  0  0  0  0
  5 21  1  0  0  0  0
  6  7  1  0  0  0  0
  6 22  1  0  0  0  0
  6 23  1  0  0  0  0
  7  8  1  0  0  0  0
  7 24  1  0  0  0  0
  7 25  1  0  0  0  0
  8  9  1  0  0  0  0
  8 26  1  0  0  0  0
  8 27  1  0  0  0  0
  9 10  1  0  0  0  0
  9 28  1  0  0  0  0
  9 29  1  0  0  0  0
 10 30  1  0  0  0  0
 10 31  1  0  0  0  0
 10 32  1  0  0  0  0
M  END
