5eko_3.pdb
  MOE2019           3D

 22 21  0  0  0  0  0  0  0  0999 V2000
    1.5740  -13.1230    0.0000 C   0  0  0  0  0  0  0  0  0  0  0  0
    0.0740  -13.1210    0.0000 C   0  0  0  0  0  0  0  0  0  0  0  0
   -0.6740  -11.8210    0.0000 O   0  0  0  0  0  0  0  0  0  0  0  0
   -2.1740  -11.8190    0.0000 C   0  0  0  0  0  0  0  0  0  0  0  0
   -2.9220  -10.5190    0.0000 C   0  0  0  0  0  0  0  0  0  0  0  0
   -4.4220  -10.5170    0.0000 O   0  0  0  0  0  0  0  0  0  0  0  0
   -5.1700   -9.2160    0.0000 C   0  0  0  0  0  0  0  0  0  0  0  0
   -6.6700   -9.2140    0.0000 C   0  0  0  0  0  0  0  0  0  0  0  0
    1.8890  -12.5780    0.8900 H   0  0  0  0  0  0  0  0  0  0  0  0
    1.9970  -14.1270    0.0000 H   0  0  0  0  0  0  0  0  0  0  0  0
    1.8890  -12.5780   -0.8900 H   0  0  0  0  0  0  0  0  0  0  0  0
   -0.2410  -13.6660    0.8900 H   0  0  0  0  0  0  0  0  0  0  0  0
   -0.2410  -13.6660   -0.8900 H   0  0  0  0  0  0  0  0  0  0  0  0
   -2.4890  -12.3640   -0.8900 H   0  0  0  0  0  0  0  0  0  0  0  0
   -2.4890  -12.3640    0.8900 H   0  0  0  0  0  0  0  0  0  0  0  0
   -2.6070   -9.9740   -0.8900 H   0  0  0  0  0  0  0  0  0  0  0  0
   -2.6070   -9.9740    0.8900 H   0  0  0  0  0  0  0  0  0  0  0  0
   -4.8540   -8.6710    0.8900 H   0  0  0  0  0  0  0  0  0  0  0  0
   -4.8540   -8.6710   -0.8900 H   0  0  0  0  0  0  0  0  0  0  0  0
   -6.9850   -9.7590    0.8900 H   0  0  0  0  0  0  0  0  0  0  0  0
   -6.9850   -9.7590   -0.8900 H   0  0  0  0  0  0  0  0  0  0  0  0
   -7.0930   -8.2100    0.0000 H   0  0  0  0  0  0  0  0  0  0  0  0
  1  2  1  0  0  0  0
  1  9  1  0  0  0  0
  1 10  1  0  0  0  0
  1 11  1  0  0  0  0
  2  3  1  0  0  0  0
  2 12  1  0  0  0  0
  2 13  1  0  0  0  0
  3  4  1  0  0  0  0
  4  5  1  0  0  0  0
  4 14  1  0  0  0  0
  4 15  1  0  0  0  0
  5  6  1  0  0  0  0
  5 16  1  0  0  0  0
  5 17  1  0  0  0  0
  6  7  1  0  0  0  0
  7  8  1  0  0  0  0
  7 18  1  0  0  0  0
  7 19  1  0  0  0  0
  8 20  1  0  0  0  0
  8 21  1  0  0  0  0
  8 22  1  0  0  0  0
M  END
