5eu1_15.pdb
  MOE2019           3D

 36 35  0  0  0  0  0  0  0  0999 V2000
    9.2410   -0.2270    0.0000 C   0  0  0  0  0  0  0  0  0  0  0  0
   10.5430   -0.9720    0.0000 C   0  0  0  0  0  0  0  0  0  0  0  0
   11.8390   -0.2170    0.0000 O   0  0  0  0  0  0  0  0  0  0  0  0
   13.1410   -0.9630    0.0000 C   0  0  0  0  0  0  0  0  0  0  0  0
   14.4370   -0.2080    0.0000 C   0  0  0  0  0  0  0  0  0  0  0  0
   15.7390   -0.9540    0.0000 O   0  0  0  0  0  0  0  0  0  0  0  0
   17.0350   -0.1990    0.0000 C   0  0  0  0  0  0  0  0  0  0  0  0
   18.3370   -0.9450    0.0000 C   0  0  0  0  0  0  0  0  0  0  0  0
   19.6330   -0.1900    0.0000 O   0  0  0  0  0  0  0  0  0  0  0  0
   20.9350   -0.9360    0.0000 C   0  0  0  0  0  0  0  0  0  0  0  0
   22.2310   -0.1810    0.0000 C   0  0  0  0  0  0  0  0  0  0  0  0
   23.5330   -0.9260    0.0000 O   0  0  0  0  0  0  0  0  0  0  0  0
   24.8290   -0.1720    0.0000 C   0  0  0  0  0  0  0  0  0  0  0  0
   26.1310   -0.9170    0.0000 C   0  0  0  0  0  0  0  0  0  0  0  0
    9.2390    0.4020   -0.8900 H   0  0  0  0  0  0  0  0  0  0  0  0
    9.2390    0.4020    0.8900 H   0  0  0  0  0  0  0  0  0  0  0  0
    8.3740   -0.8870    0.0000 H   0  0  0  0  0  0  0  0  0  0  0  0
   10.5450   -1.6010   -0.8900 H   0  0  0  0  0  0  0  0  0  0  0  0
   10.5450   -1.6010    0.8900 H   0  0  0  0  0  0  0  0  0  0  0  0
   13.1430   -1.5920    0.8900 H   0  0  0  0  0  0  0  0  0  0  0  0
   13.1430   -1.5920   -0.8900 H   0  0  0  0  0  0  0  0  0  0  0  0
   14.4350    0.4210    0.8900 H   0  0  0  0  0  0  0  0  0  0  0  0
   14.4350    0.4210   -0.8900 H   0  0  0  0  0  0  0  0  0  0  0  0
   17.0330    0.4300   -0.8900 H   0  0  0  0  0  0  0  0  0  0  0  0
   17.0330    0.4300    0.8900 H   0  0  0  0  0  0  0  0  0  0  0  0
   18.3390   -1.5740   -0.8900 H   0  0  0  0  0  0  0  0  0  0  0  0
   18.3390   -1.5740    0.8900 H   0  0  0  0  0  0  0  0  0  0  0  0
   20.9370   -1.5650    0.8900 H   0  0  0  0  0  0  0  0  0  0  0  0
   20.9370   -1.5650   -0.8900 H   0  0  0  0  0  0  0  0  0  0  0  0
   22.2290    0.4480    0.8900 H   0  0  0  0  0  0  0  0  0  0  0  0
   22.2290    0.4480   -0.8900 H   0  0  0  0  0  0  0  0  0  0  0  0
   24.8270    0.4570   -0.8900 H   0  0  0  0  0  0  0  0  0  0  0  0
   24.8270    0.4570    0.8900 H   0  0  0  0  0  0  0  0  0  0  0  0
   26.1330   -1.5460   -0.8900 H   0  0  0  0  0  0  0  0  0  0  0  0
   26.1330   -1.5460    0.8900 H   0  0  0  0  0  0  0  0  0  0  0  0
   26.9980   -0.2570    0.0000 H   0  0  0  0  0  0  0  0  0  0  0  0
  1  2  1  0  0  0  0
  1 15  1  0  0  0  0
  1 16  1  0  0  0  0
  1 17  1  0  0  0  0
  2  3  1  0  0  0  0
  2 18  1  0  0  0  0
  2 19  1  0  0  0  0
  3  4  1  0  0  0  0
  4  5  1  0  0  0  0
  4 20  1  0  0  0  0
  4 21  1  0  0  0  0
  5  6  1  0  0  0  0
  5 22  1  0  0  0  0
  5 23  1  0  0  0  0
  6  7  1  0  0  0  0
  7  8  1  0  0  0  0
  7 24  1  0  0  0  0
  7 25  1  0  0  0  0
  8  9  1  0  0  0  0
  8 26  1  0  0  0  0
  8 27  1  0  0  0  0
  9 10  1  0  0  0  0
 10 11  1  0  0  0  0
 10 28  1  0  0  0  0
 10 29  1  0  0  0  0
 11 12  1  0  0  0  0
 11 30  1  0  0  0  0
 11 31  1  0  0  0  0
 12 13  1  0  0  0  0
 13 14  1  0  0  0  0
 13 32  1  0  0  0  0
 13 33  1  0  0  0  0
 14 34  1  0  0  0  0
 14 35  1  0  0  0  0
 14 36  1  0  0  0  0
M  END
