5eu1_1.pdb
  MOE2019           3D

 22 21  0  0  0  0  0  0  0  0999 V2000
    1.1880    2.9100    0.0000 C   0  0  0  0  0  0  0  0  0  0  0  0
    2.4870    3.6600    0.0000 C   0  0  0  0  0  0  0  0  0  0  0  0
    3.7860    2.9100    0.0000 C   0  0  0  0  0  0  0  0  0  0  0  0
    5.0860    3.6600    0.0000 C   0  0  0  0  0  0  0  0  0  0  0  0
    6.3850    2.9100    0.0000 C   0  0  0  0  0  0  0  0  0  0  0  0
    7.6840    3.6600    0.0000 C   0  0  0  0  0  0  0  0  0  0  0  0
    8.9830    2.9100    0.0000 N   0  0  0  0  0  0  0  0  0  0  0  0
    1.1880    2.2810   -0.8900 H   0  0  0  0  0  0  0  0  0  0  0  0
    0.3180    3.5670    0.0000 H   0  0  0  0  0  0  0  0  0  0  0  0
    1.1880    2.2810    0.8900 H   0  0  0  0  0  0  0  0  0  0  0  0
    2.4870    4.2890    0.8900 H   0  0  0  0  0  0  0  0  0  0  0  0
    2.4870    4.2890   -0.8900 H   0  0  0  0  0  0  0  0  0  0  0  0
    3.7860    2.2810   -0.8900 H   0  0  0  0  0  0  0  0  0  0  0  0
    3.7860    2.2810    0.8900 H   0  0  0  0  0  0  0  0  0  0  0  0
    5.0860    4.2890    0.8900 H   0  0  0  0  0  0  0  0  0  0  0  0
    5.0860    4.2890   -0.8900 H   0  0  0  0  0  0  0  0  0  0  0  0
    6.3850    2.2810   -0.8900 H   0  0  0  0  0  0  0  0  0  0  0  0
    6.3850    2.2810    0.8900 H   0  0  0  0  0  0  0  0  0  0  0  0
    7.6840    4.2890    0.8900 H   0  0  0  0  0  0  0  0  0  0  0  0
    7.6840    4.2890   -0.8900 H   0  0  0  0  0  0  0  0  0  0  0  0
    8.9830    1.9000    0.0000 H   0  0  0  0  0  0  0  0  0  0  0  0
    9.8580    3.4150    0.0000 H   0  0  0  0  0  0  0  0  0  0  0  0
  1  2  1  0  0  0  0
  1  8  1  0  0  0  0
  1  9  1  0  0  0  0
  1 10  1  0  0  0  0
  2  3  1  0  0  0  0
  2 11  1  0  0  0  0
  2 12  1  0  0  0  0
  3  4  1  0  0  0  0
  3 13  1  0  0  0  0
  3 14  1  0  0  0  0
  4  5  1  0  0  0  0
  4 15  1  0  0  0  0
  4 16  1  0  0  0  0
  5  6  1  0  0  0  0
  5 17  1  0  0  0  0
  5 18  1  0  0  0  0
  6  7  1  0  0  0  0
  6 19  1  0  0  0  0
  6 20  1  0  0  0  0
  7 21  1  0  0  0  0
  7 22  1  0  0  0  0
M  END
