5eu1_21.pdb
  MOE2019           3D

 17 16  0  0  0  0  0  0  0  0999 V2000
    4.9490   15.4850    0.0000 C   0  0  0  0  0  0  0  0  0  0  0  0
    6.4490   15.4840    0.0000 C   0  0  0  0  0  0  0  0  0  0  0  0
    7.2000   16.7830    0.0000 C   0  0  0  0  0  0  0  0  0  0  0  0
    8.7000   16.7820    0.0000 C   0  0  0  0  0  0  0  0  0  0  0  0
    9.4510   18.0810    0.0000 C   0  0  0  0  0  0  0  0  0  0  0  0
    4.6350   16.0300   -0.8900 H   0  0  0  0  0  0  0  0  0  0  0  0
    4.6350   16.0300    0.8900 H   0  0  0  0  0  0  0  0  0  0  0  0
    4.5240   14.4810    0.0000 H   0  0  0  0  0  0  0  0  0  0  0  0
    6.7630   14.9390    0.8900 H   0  0  0  0  0  0  0  0  0  0  0  0
    6.7630   14.9390   -0.8900 H   0  0  0  0  0  0  0  0  0  0  0  0
    6.8860   17.3280   -0.8900 H   0  0  0  0  0  0  0  0  0  0  0  0
    6.8860   17.3280    0.8900 H   0  0  0  0  0  0  0  0  0  0  0  0
    9.0140   16.2370   -0.8900 H   0  0  0  0  0  0  0  0  0  0  0  0
    9.0140   16.2370    0.8900 H   0  0  0  0  0  0  0  0  0  0  0  0
    9.1370   18.6260    0.8900 H   0  0  0  0  0  0  0  0  0  0  0  0
    9.1370   18.6260   -0.8900 H   0  0  0  0  0  0  0  0  0  0  0  0
   10.5330   17.9460    0.0000 H   0  0  0  0  0  0  0  0  0  0  0  0
  1  2  1  0  0  0  0
  1  6  1  0  0  0  0
  1  7  1  0  0  0  0
  1  8  1  0  0  0  0
  2  3  1  0  0  0  0
  2  9  1  0  0  0  0
  2 10  1  0  0  0  0
  3  4  1  0  0  0  0
  3 11  1  0  0  0  0
  3 12  1  0  0  0  0
  4  5  1  0  0  0  0
  4 13  1  0  0  0  0
  4 14  1  0  0  0  0
  5 15  1  0  0  0  0
  5 16  1  0  0  0  0
  5 17  1  0  0  0  0
M  END
