5f1h_8.pdb
  MOE2019           3D

 11 10  0  0  0  0  0  0  0  0999 V2000
    4.1270   15.9660    0.0000 C   0  0  0  0  0  0  0  0  0  0  0  0
    4.8780   14.6680    0.0000 C   0  0  0  0  0  0  0  0  0  0  0  0
    6.3780   14.6690    0.0000 C   0  0  0  0  0  0  0  0  0  0  0  0
    4.4410   16.5110   -0.8900 H   0  0  0  0  0  0  0  0  0  0  0  0
    4.4410   16.5110    0.8900 H   0  0  0  0  0  0  0  0  0  0  0  0
    3.0450   15.8310    0.0000 H   0  0  0  0  0  0  0  0  0  0  0  0
    4.5640   14.1230    0.8900 H   0  0  0  0  0  0  0  0  0  0  0  0
    4.5640   14.1230   -0.8900 H   0  0  0  0  0  0  0  0  0  0  0  0
    6.6920   15.2140    0.8900 H   0  0  0  0  0  0  0  0  0  0  0  0
    6.8030   13.6650    0.0000 H   0  0  0  0  0  0  0  0  0  0  0  0
    6.6920   15.2140   -0.8900 H   0  0  0  0  0  0  0  0  0  0  0  0
  1  2  1  0  0  0  0
  1  4  1  0  0  0  0
  1  5  1  0  0  0  0
  1  6  1  0  0  0  0
  2  3  1  0  0  0  0
  2  7  1  0  0  0  0
  2  8  1  0  0  0  0
  3  9  1  0  0  0  0
  3 10  1  0  0  0  0
  3 11  1  0  0  0  0
M  END
