5g0i_1.pdb
  MOE2019           3D

 27 27  0  0  0  0  0  0  0  0999 V2000
    2.0040   -8.0960    0.0000 O   0  0  0  0  0  0  0  0  0  0  0  0
    1.7190   -7.6150    0.7800 H   0  0  0  0  0  0  0  0  0  0  0  0
    1.2990   -9.4200    0.0000 C   0  0  0  0  0  0  0  0  0  0  0  0
   -0.2000   -9.4720    0.0000 C   0  0  0  0  0  0  0  0  0  0  0  0
   -0.9040  -10.7960    0.0000 C   0  0  0  0  0  0  0  0  0  0  0  0
   -2.4030  -10.8480    0.0000 C   0  0  0  0  0  0  0  0  0  0  0  0
   -3.1080  -12.1730    0.0000 C   0  0  0  0  0  0  0  0  0  0  0  0
   -4.6070  -12.2250    0.0000 N   0  0  0  0  0  0  0  0  0  0  0  0
   -5.4460  -13.4680    0.0000 N   0  0  0  0  0  0  0  0  0  0  0  0
   -6.8880  -13.0540    0.0000 N   0  0  0  0  0  0  0  0  0  0  0  0
   -6.9400  -11.5550    0.0000 C   0  0  0  0  0  0  0  0  0  0  0  0
   -8.1830  -10.7160    0.0000 C   0  0  0  0  0  0  0  0  0  0  0  0
   -5.5300  -11.0420    0.0000 C   0  0  0  0  0  0  0  0  0  0  0  0
    1.6320   -9.9540    0.8900 H   0  0  0  0  0  0  0  0  0  0  0  0
    1.6320   -9.9540   -0.8900 H   0  0  0  0  0  0  0  0  0  0  0  0
   -0.5330   -8.9380   -0.8900 H   0  0  0  0  0  0  0  0  0  0  0  0
   -0.5330   -8.9380    0.8900 H   0  0  0  0  0  0  0  0  0  0  0  0
   -0.5710  -11.3300    0.8900 H   0  0  0  0  0  0  0  0  0  0  0  0
   -0.5710  -11.3300   -0.8900 H   0  0  0  0  0  0  0  0  0  0  0  0
   -2.7360  -10.3140   -0.8900 H   0  0  0  0  0  0  0  0  0  0  0  0
   -2.7360  -10.3140    0.8900 H   0  0  0  0  0  0  0  0  0  0  0  0
   -2.7750  -12.7070    0.8900 H   0  0  0  0  0  0  0  0  0  0  0  0
   -2.7750  -12.7070   -0.8900 H   0  0  0  0  0  0  0  0  0  0  0  0
   -8.1390  -10.0880   -0.8900 H   0  0  0  0  0  0  0  0  0  0  0  0
   -9.0960  -11.3110    0.0000 H   0  0  0  0  0  0  0  0  0  0  0  0
   -8.1390  -10.0880    0.8900 H   0  0  0  0  0  0  0  0  0  0  0  0
   -5.2320  -10.0040    0.0000 H   0  0  0  0  0  0  0  0  0  0  0  0
  1  2  1  0  0  0  0
  1  3  1  0  0  0  0
  3  4  1  0  0  0  0
  3 14  1  0  0  0  0
  3 15  1  0  0  0  0
  4  5  1  0  0  0  0
  4 16  1  0  0  0  0
  4 17  1  0  0  0  0
  5  6  1  0  0  0  0
  5 18  1  0  0  0  0
  5 19  1  0  0  0  0
  6  7  1  0  0  0  0
  6 20  1  0  0  0  0
  6 21  1  0  0  0  0
  7  8  1  0  0  0  0
  7 22  1  0  0  0  0
  7 23  1  0  0  0  0
  8  9  1  0  0  0  0
  8 13  1  0  0  0  0
  9 10  2  0  0  0  0
 10 11  1  0  0  0  0
 11 12  1  0  0  0  0
 11 13  2  0  0  0  0
 12 24  1  0  0  0  0
 12 25  1  0  0  0  0
 12 26  1  0  0  0  0
 13 27  1  0  0  0  0
M  END
