5g0i_9.pdb
  MOE2019           3D

 45 45  0  0  0  0  0  0  0  0999 V2000
    8.8690  -17.9650    0.0000 O   0  0  0  0  0  0  0  0  0  0  0  0
    8.8790  -17.4060   -0.7800 H   0  0  0  0  0  0  0  0  0  0  0  0
    7.5730  -18.7210    0.0000 C   0  0  0  0  0  0  0  0  0  0  0  0
    6.2710  -17.9770    0.0000 C   0  0  0  0  0  0  0  0  0  0  0  0
    4.9750  -18.7330    0.0000 C   0  0  0  0  0  0  0  0  0  0  0  0
    3.6720  -17.9890    0.0000 C   0  0  0  0  0  0  0  0  0  0  0  0
    2.3770  -18.7450    0.0000 C   0  0  0  0  0  0  0  0  0  0  0  0
    2.3840  -20.2450    0.0000 C   0  0  0  0  0  0  0  0  0  0  0  0
    1.0880  -21.0010    0.0000 C   0  0  0  0  0  0  0  0  0  0  0  0
   -0.2140  -20.2570    0.0000 C   0  0  0  0  0  0  0  0  0  0  0  0
   -1.5100  -21.0130    0.0000 C   0  0  0  0  0  0  0  0  0  0  0  0
   -2.8120  -20.2700    0.0000 N   0  0  0  0  0  0  0  0  0  0  0  0
   -4.1800  -20.8860    0.0000 N   0  0  0  0  0  0  0  0  0  0  0  0
   -5.1890  -19.7760    0.0000 N   0  0  0  0  0  0  0  0  0  0  0  0
   -4.4450  -18.4730    0.0000 C   0  0  0  0  0  0  0  0  0  0  0  0
   -5.0610  -17.1060    0.0000 C   0  0  0  0  0  0  0  0  0  0  0  0
   -6.5530  -16.9560    0.0000 C   0  0  0  0  0  0  0  0  0  0  0  0
   -7.1700  -15.5890    0.0000 C   0  0  0  0  0  0  0  0  0  0  0  0
   -2.9760  -18.7780    0.0000 C   0  0  0  0  0  0  0  0  0  0  0  0
    7.5760  -19.3500   -0.8900 H   0  0  0  0  0  0  0  0  0  0  0  0
    7.5760  -19.3500    0.8900 H   0  0  0  0  0  0  0  0  0  0  0  0
    6.2680  -17.3480    0.8900 H   0  0  0  0  0  0  0  0  0  0  0  0
    6.2680  -17.3480   -0.8900 H   0  0  0  0  0  0  0  0  0  0  0  0
    4.9780  -19.3620   -0.8900 H   0  0  0  0  0  0  0  0  0  0  0  0
    4.9780  -19.3620    0.8900 H   0  0  0  0  0  0  0  0  0  0  0  0
    3.6690  -17.3600    0.8900 H   0  0  0  0  0  0  0  0  0  0  0  0
    3.6690  -17.3600   -0.8900 H   0  0  0  0  0  0  0  0  0  0  0  0
    1.8310  -18.4330    0.8900 H   0  0  0  0  0  0  0  0  0  0  0  0
    1.8310  -18.4330   -0.8900 H   0  0  0  0  0  0  0  0  0  0  0  0
    2.9300  -20.5570    0.8900 H   0  0  0  0  0  0  0  0  0  0  0  0
    2.9300  -20.5570   -0.8900 H   0  0  0  0  0  0  0  0  0  0  0  0
    1.0910  -21.6300    0.8900 H   0  0  0  0  0  0  0  0  0  0  0  0
    1.0910  -21.6300   -0.8900 H   0  0  0  0  0  0  0  0  0  0  0  0
   -0.2170  -19.6280   -0.8900 H   0  0  0  0  0  0  0  0  0  0  0  0
   -0.2170  -19.6280    0.8900 H   0  0  0  0  0  0  0  0  0  0  0  0
   -1.5070  -21.6420    0.8900 H   0  0  0  0  0  0  0  0  0  0  0  0
   -1.5070  -21.6420   -0.8900 H   0  0  0  0  0  0  0  0  0  0  0  0
   -4.6930  -16.5950    0.8900 H   0  0  0  0  0  0  0  0  0  0  0  0
   -4.6930  -16.5950   -0.8900 H   0  0  0  0  0  0  0  0  0  0  0  0
   -6.9200  -17.4670   -0.8900 H   0  0  0  0  0  0  0  0  0  0  0  0
   -6.9200  -17.4670    0.8900 H   0  0  0  0  0  0  0  0  0  0  0  0
   -6.8030  -15.0780   -0.8900 H   0  0  0  0  0  0  0  0  0  0  0  0
   -6.8030  -15.0780    0.8900 H   0  0  0  0  0  0  0  0  0  0  0  0
   -8.2600  -15.6150    0.0000 H   0  0  0  0  0  0  0  0  0  0  0  0
   -2.1770  -18.0520    0.0000 H   0  0  0  0  0  0  0  0  0  0  0  0
  1  2  1  0  0  0  0
  1  3  1  0  0  0  0
  3  4  1  0  0  0  0
  3 20  1  0  0  0  0
  3 21  1  0  0  0  0
  4  5  1  0  0  0  0
  4 22  1  0  0  0  0
  4 23  1  0  0  0  0
  5  6  1  0  0  0  0
  5 24  1  0  0  0  0
  5 25  1  0  0  0  0
  6  7  1  0  0  0  0
  6 26  1  0  0  0  0
  6 27  1  0  0  0  0
  7  8  1  0  0  0  0
  7 28  1  0  0  0  0
  7 29  1  0  0  0  0
  8  9  1  0  0  0  0
  8 30  1  0  0  0  0
  8 31  1  0  0  0  0
  9 10  1  0  0  0  0
  9 32  1  0  0  0  0
  9 33  1  0  0  0  0
 10 11  1  0  0  0  0
 10 34  1  0  0  0  0
 10 35  1  0  0  0  0
 11 12  1  0  0  0  0
 11 36  1  0  0  0  0
 11 37  1  0  0  0  0
 12 13  1  0  0  0  0
 12 19  1  0  0  0  0
 13 14  2  0  0  0  0
 14 15  1  0  0  0  0
 15 16  1  0  0  0  0
 15 19  2  0  0  0  0
 16 17  1  0  0  0  0
 16 38  1  0  0  0  0
 16 39  1  0  0  0  0
 17 18  1  0  0  0  0
 17 40  1  0  0  0  0
 17 41  1  0  0  0  0
 18 42  1  0  0  0  0
 18 43  1  0  0  0  0
 18 44  1  0  0  0  0
 19 45  1  0  0  0  0
M  END
