5g0i_12.pdb
  MOE2019           3D

 54 54  0  0  0  0  0  0  0  0999 V2000
   11.2510   18.5490    0.0000 O   0  0  0  0  0  0  0  0  0  0  0  0
   11.2610   19.1080   -0.7800 H   0  0  0  0  0  0  0  0  0  0  0  0
    9.9560   17.7940    0.0000 C   0  0  0  0  0  0  0  0  0  0  0  0
    8.6530   18.5380    0.0000 C   0  0  0  0  0  0  0  0  0  0  0  0
    7.3580   17.7820    0.0000 C   0  0  0  0  0  0  0  0  0  0  0  0
    6.0550   18.5260    0.0000 C   0  0  0  0  0  0  0  0  0  0  0  0
    4.7590   17.7710    0.0000 C   0  0  0  0  0  0  0  0  0  0  0  0
    3.4570   18.5150    0.0000 C   0  0  0  0  0  0  0  0  0  0  0  0
    2.1610   17.7590    0.0000 C   0  0  0  0  0  0  0  0  0  0  0  0
    0.8590   18.5040    0.0000 C   0  0  0  0  0  0  0  0  0  0  0  0
   -0.4370   17.7480    0.0000 C   0  0  0  0  0  0  0  0  0  0  0  0
   -1.7390   18.4920    0.0000 C   0  0  0  0  0  0  0  0  0  0  0  0
   -3.0350   17.7370    0.0000 C   0  0  0  0  0  0  0  0  0  0  0  0
   -4.3370   18.4810    0.0000 C   0  0  0  0  0  0  0  0  0  0  0  0
   -5.6330   17.7250    0.0000 N   0  0  0  0  0  0  0  0  0  0  0  0
   -5.7830   16.2330    0.0000 N   0  0  0  0  0  0  0  0  0  0  0  0
   -7.2490   15.9140    0.0000 N   0  0  0  0  0  0  0  0  0  0  0  0
   -8.0040   17.2100    0.0000 C   0  0  0  0  0  0  0  0  0  0  0  0
   -9.4970   17.3600    0.0000 C   0  0  0  0  0  0  0  0  0  0  0  0
  -10.1130   18.7280    0.0000 C   0  0  0  0  0  0  0  0  0  0  0  0
  -11.6060   18.8780    0.0000 C   0  0  0  0  0  0  0  0  0  0  0  0
   -7.0060   18.3290    0.0000 C   0  0  0  0  0  0  0  0  0  0  0  0
    9.9590   17.1650   -0.8900 H   0  0  0  0  0  0  0  0  0  0  0  0
    9.9590   17.1650    0.8900 H   0  0  0  0  0  0  0  0  0  0  0  0
    8.6500   19.1670    0.8900 H   0  0  0  0  0  0  0  0  0  0  0  0
    8.6500   19.1670   -0.8900 H   0  0  0  0  0  0  0  0  0  0  0  0
    7.3610   17.1530   -0.8900 H   0  0  0  0  0  0  0  0  0  0  0  0
    7.3610   17.1530    0.8900 H   0  0  0  0  0  0  0  0  0  0  0  0
    6.0520   19.1550    0.8900 H   0  0  0  0  0  0  0  0  0  0  0  0
    6.0520   19.1550   -0.8900 H   0  0  0  0  0  0  0  0  0  0  0  0
    4.7620   17.1420   -0.8900 H   0  0  0  0  0  0  0  0  0  0  0  0
    4.7620   17.1420    0.8900 H   0  0  0  0  0  0  0  0  0  0  0  0
    3.4540   19.1440    0.8900 H   0  0  0  0  0  0  0  0  0  0  0  0
    3.4540   19.1440   -0.8900 H   0  0  0  0  0  0  0  0  0  0  0  0
    2.1640   17.1300    0.8900 H   0  0  0  0  0  0  0  0  0  0  0  0
    2.1640   17.1300   -0.8900 H   0  0  0  0  0  0  0  0  0  0  0  0
    0.8560   19.1330   -0.8900 H   0  0  0  0  0  0  0  0  0  0  0  0
    0.8560   19.1330    0.8900 H   0  0  0  0  0  0  0  0  0  0  0  0
   -0.4340   17.1190    0.8900 H   0  0  0  0  0  0  0  0  0  0  0  0
   -0.4340   17.1190   -0.8900 H   0  0  0  0  0  0  0  0  0  0  0  0
   -1.7420   19.1210   -0.8900 H   0  0  0  0  0  0  0  0  0  0  0  0
   -1.7420   19.1210    0.8900 H   0  0  0  0  0  0  0  0  0  0  0  0
   -3.0320   17.1080    0.8900 H   0  0  0  0  0  0  0  0  0  0  0  0
   -3.0320   17.1080   -0.8900 H   0  0  0  0  0  0  0  0  0  0  0  0
   -4.3400   19.1100   -0.8900 H   0  0  0  0  0  0  0  0  0  0  0  0
   -4.3400   19.1100    0.8900 H   0  0  0  0  0  0  0  0  0  0  0  0
   -9.8650   16.8490   -0.8900 H   0  0  0  0  0  0  0  0  0  0  0  0
   -9.8650   16.8490    0.8900 H   0  0  0  0  0  0  0  0  0  0  0  0
   -9.7450   19.2390    0.8900 H   0  0  0  0  0  0  0  0  0  0  0  0
   -9.7450   19.2390   -0.8900 H   0  0  0  0  0  0  0  0  0  0  0  0
  -11.9740   18.3670    0.8900 H   0  0  0  0  0  0  0  0  0  0  0  0
  -11.9740   18.3670   -0.8900 H   0  0  0  0  0  0  0  0  0  0  0  0
  -11.9270   19.9200    0.0000 H   0  0  0  0  0  0  0  0  0  0  0  0
   -7.2350   19.3840    0.0000 H   0  0  0  0  0  0  0  0  0  0  0  0
  1  2  1  0  0  0  0
  1  3  1  0  0  0  0
  3  4  1  0  0  0  0
  3 23  1  0  0  0  0
  3 24  1  0  0  0  0
  4  5  1  0  0  0  0
  4 25  1  0  0  0  0
  4 26  1  0  0  0  0
  5  6  1  0  0  0  0
  5 27  1  0  0  0  0
  5 28  1  0  0  0  0
  6  7  1  0  0  0  0
  6 29  1  0  0  0  0
  6 30  1  0  0  0  0
  7  8  1  0  0  0  0
  7 31  1  0  0  0  0
  7 32  1  0  0  0  0
  8  9  1  0  0  0  0
  8 33  1  0  0  0  0
  8 34  1  0  0  0  0
  9 10  1  0  0  0  0
  9 35  1  0  0  0  0
  9 36  1  0  0  0  0
 10 11  1  0  0  0  0
 10 37  1  0  0  0  0
 10 38  1  0  0  0  0
 11 12  1  0  0  0  0
 11 39  1  0  0  0  0
 11 40  1  0  0  0  0
 12 13  1  0  0  0  0
 12 41  1  0  0  0  0
 12 42  1  0  0  0  0
 13 14  1  0  0  0  0
 13 43  1  0  0  0  0
 13 44  1  0  0  0  0
 14 15  1  0  0  0  0
 14 45  1  0  0  0  0
 14 46  1  0  0  0  0
 15 16  1  0  0  0  0
 15 22  1  0  0  0  0
 16 17  2  0  0  0  0
 17 18  1  0  0  0  0
 18 19  1  0  0  0  0
 18 22  2  0  0  0  0
 19 20  1  0  0  0  0
 19 47  1  0  0  0  0
 19 48  1  0  0  0  0
 20 21  1  0  0  0  0
 20 49  1  0  0  0  0
 20 50  1  0  0  0  0
 21 51  1  0  0  0  0
 21 52  1  0  0  0  0
 21 53  1  0  0  0  0
 22 54  1  0  0  0  0
M  END
