5g0j_6.pdb
  MOE2019           3D

 36 36  0  0  0  0  0  0  0  0999 V2000
   13.2940   20.1810    0.0000 O   0  0  0  0  0  0  0  0  0  0  0  0
   13.3210   20.7400   -0.7800 H   0  0  0  0  0  0  0  0  0  0  0  0
   11.9760   19.4650    0.0000 C   0  0  0  0  0  0  0  0  0  0  0  0
   10.6970   20.2480    0.0000 C   0  0  0  0  0  0  0  0  0  0  0  0
    9.3790   19.5320    0.0000 C   0  0  0  0  0  0  0  0  0  0  0  0
    8.1000   20.3150    0.0000 C   0  0  0  0  0  0  0  0  0  0  0  0
    6.7820   19.5990    0.0000 C   0  0  0  0  0  0  0  0  0  0  0  0
    5.5030   20.3820    0.0000 C   0  0  0  0  0  0  0  0  0  0  0  0
    4.1850   19.6660    0.0000 N   0  0  0  0  0  0  0  0  0  0  0  0
    2.8300   20.3120    0.0000 N   0  0  0  0  0  0  0  0  0  0  0  0
    1.7980   19.2230    0.0000 N   0  0  0  0  0  0  0  0  0  0  0  0
    2.5140   17.9050    0.0000 C   0  0  0  0  0  0  0  0  0  0  0  0
    1.8690   16.5510    0.0000 C   0  0  0  0  0  0  0  0  0  0  0  0
    0.3740   16.4330    0.0000 C   0  0  0  0  0  0  0  0  0  0  0  0
   -0.2720   15.0790    0.0000 C   0  0  0  0  0  0  0  0  0  0  0  0
    3.9890   18.1790    0.0000 C   0  0  0  0  0  0  0  0  0  0  0  0
   11.9600   18.8360   -0.8900 H   0  0  0  0  0  0  0  0  0  0  0  0
   11.9600   18.8360    0.8900 H   0  0  0  0  0  0  0  0  0  0  0  0
   10.7130   20.8770    0.8900 H   0  0  0  0  0  0  0  0  0  0  0  0
   10.7130   20.8770   -0.8900 H   0  0  0  0  0  0  0  0  0  0  0  0
    9.3630   18.9030   -0.8900 H   0  0  0  0  0  0  0  0  0  0  0  0
    9.3630   18.9030    0.8900 H   0  0  0  0  0  0  0  0  0  0  0  0
    8.1160   20.9440   -0.8900 H   0  0  0  0  0  0  0  0  0  0  0  0
    8.1160   20.9440    0.8900 H   0  0  0  0  0  0  0  0  0  0  0  0
    6.7660   18.9700    0.8900 H   0  0  0  0  0  0  0  0  0  0  0  0
    6.7660   18.9700   -0.8900 H   0  0  0  0  0  0  0  0  0  0  0  0
    5.5190   21.0110   -0.8900 H   0  0  0  0  0  0  0  0  0  0  0  0
    5.5190   21.0110    0.8900 H   0  0  0  0  0  0  0  0  0  0  0  0
    2.2260   16.0320   -0.8900 H   0  0  0  0  0  0  0  0  0  0  0  0
    2.2260   16.0320    0.8900 H   0  0  0  0  0  0  0  0  0  0  0  0
    0.0180   16.9520    0.8900 H   0  0  0  0  0  0  0  0  0  0  0  0
    0.0180   16.9520   -0.8900 H   0  0  0  0  0  0  0  0  0  0  0  0
    0.0840   14.5600    0.8900 H   0  0  0  0  0  0  0  0  0  0  0  0
    0.0840   14.5600   -0.8900 H   0  0  0  0  0  0  0  0  0  0  0  0
   -1.3610   15.1290    0.0000 H   0  0  0  0  0  0  0  0  0  0  0  0
    4.7720   17.4360    0.0000 H   0  0  0  0  0  0  0  0  0  0  0  0
  1  2  1  0  0  0  0
  1  3  1  0  0  0  0
  3  4  1  0  0  0  0
  3 17  1  0  0  0  0
  3 18  1  0  0  0  0
  4  5  1  0  0  0  0
  4 19  1  0  0  0  0
  4 20  1  0  0  0  0
  5  6  1  0  0  0  0
  5 21  1  0  0  0  0
  5 22  1  0  0  0  0
  6  7  1  0  0  0  0
  6 23  1  0  0  0  0
  6 24  1  0  0  0  0
  7  8  1  0  0  0  0
  7 25  1  0  0  0  0
  7 26  1  0  0  0  0
  8  9  1  0  0  0  0
  8 27  1  0  0  0  0
  8 28  1  0  0  0  0
  9 10  1  0  0  0  0
  9 16  1  0  0  0  0
 10 11  2  0  0  0  0
 11 12  1  0  0  0  0
 12 13  1  0  0  0  0
 12 16  2  0  0  0  0
 13 14  1  0  0  0  0
 13 29  1  0  0  0  0
 13 30  1  0  0  0  0
 14 15  1  0  0  0  0
 14 31  1  0  0  0  0
 14 32  1  0  0  0  0
 15 33  1  0  0  0  0
 15 34  1  0  0  0  0
 15 35  1  0  0  0  0
 16 36  1  0  0  0  0
M  END
