5gmp_1.pdb
  MOE2019           3D

 33 32  0  0  0  0  0  0  0  0999 V2000
   -8.4750  -19.1440    0.0000 C   0  0  0  0  0  0  0  0  0  0  0  0
   -7.1760  -18.3940    0.0000 C   0  0  0  0  0  0  0  0  0  0  0  0
   -5.8770  -19.1440    0.0000 C   0  0  0  0  0  0  0  0  0  0  0  0
   -4.5780  -18.3940    0.0000 C   0  0  0  0  0  0  0  0  0  0  0  0
   -3.2790  -19.1440    0.0000 C   0  0  0  0  0  0  0  0  0  0  0  0
   -1.9800  -18.3940    0.0000 C   0  0  0  0  0  0  0  0  0  0  0  0
   -0.6810  -19.1440    0.0000 C   0  0  0  0  0  0  0  0  0  0  0  0
    0.6180  -18.3940    0.0000 C   0  0  0  0  0  0  0  0  0  0  0  0
    1.9170  -19.1440    0.0000 C   0  0  0  0  0  0  0  0  0  0  0  0
    3.2160  -18.3940    0.0000 C   0  0  0  0  0  0  0  0  0  0  0  0
    3.2160  -16.8940    0.0000 O   0  0  0  0  0  0  0  0  0  0  0  0
    4.5150  -19.1440    0.0000 N   0  0  0  0  0  0  0  0  0  0  0  0
   -8.4750  -19.7730   -0.8900 H   0  0  0  0  0  0  0  0  0  0  0  0
   -9.3450  -18.4870    0.0000 H   0  0  0  0  0  0  0  0  0  0  0  0
   -8.4750  -19.7730    0.8900 H   0  0  0  0  0  0  0  0  0  0  0  0
   -7.1760  -17.7650    0.8900 H   0  0  0  0  0  0  0  0  0  0  0  0
   -7.1760  -17.7650   -0.8900 H   0  0  0  0  0  0  0  0  0  0  0  0
   -5.8770  -19.7730   -0.8900 H   0  0  0  0  0  0  0  0  0  0  0  0
   -5.8770  -19.7730    0.8900 H   0  0  0  0  0  0  0  0  0  0  0  0
   -4.5780  -17.7650    0.8900 H   0  0  0  0  0  0  0  0  0  0  0  0
   -4.5780  -17.7650   -0.8900 H   0  0  0  0  0  0  0  0  0  0  0  0
   -3.2790  -19.7730   -0.8900 H   0  0  0  0  0  0  0  0  0  0  0  0
   -3.2790  -19.7730    0.8900 H   0  0  0  0  0  0  0  0  0  0  0  0
   -1.9800  -17.7650    0.8900 H   0  0  0  0  0  0  0  0  0  0  0  0
   -1.9800  -17.7650   -0.8900 H   0  0  0  0  0  0  0  0  0  0  0  0
   -0.6810  -19.7730   -0.8900 H   0  0  0  0  0  0  0  0  0  0  0  0
   -0.6810  -19.7730    0.8900 H   0  0  0  0  0  0  0  0  0  0  0  0
    0.6180  -17.7650    0.8900 H   0  0  0  0  0  0  0  0  0  0  0  0
    0.6180  -17.7650   -0.8900 H   0  0  0  0  0  0  0  0  0  0  0  0
    1.9170  -19.7730   -0.8900 H   0  0  0  0  0  0  0  0  0  0  0  0
    1.9170  -19.7730    0.8900 H   0  0  0  0  0  0  0  0  0  0  0  0
    4.5150  -20.1540    0.0000 H   0  0  0  0  0  0  0  0  0  0  0  0
    5.3900  -18.6390    0.0000 H   0  0  0  0  0  0  0  0  0  0  0  0
  1  2  1  0  0  0  0
  1 13  1  0  0  0  0
  1 14  1  0  0  0  0
  1 15  1  0  0  0  0
  2  3  1  0  0  0  0
  2 16  1  0  0  0  0
  2 17  1  0  0  0  0
  3  4  1  0  0  0  0
  3 18  1  0  0  0  0
  3 19  1  0  0  0  0
  4  5  1  0  0  0  0
  4 20  1  0  0  0  0
  4 21  1  0  0  0  0
  5  6  1  0  0  0  0
  5 22  1  0  0  0  0
  5 23  1  0  0  0  0
  6  7  1  0  0  0  0
  6 24  1  0  0  0  0
  6 25  1  0  0  0  0
  7  8  1  0  0  0  0
  7 26  1  0  0  0  0
  7 27  1  0  0  0  0
  8  9  1  0  0  0  0
  8 28  1  0  0  0  0
  8 29  1  0  0  0  0
  9 10  1  0  0  0  0
  9 30  1  0  0  0  0
  9 31  1  0  0  0  0
 10 11  2  0  0  0  0
 10 12  1  0  0  0  0
 12 32  1  0  0  0  0
 12 33  1  0  0  0  0
M  END
