5gmp_7.pdb
  MOE2019           3D

 26 25  0  0  0  0  0  0  0  0999 V2000
    9.8830   -7.9520    0.0000 C   0  0  0  0  0  0  0  0  0  0  0  0
   10.6310   -6.6520    0.0000 C   0  0  0  0  0  0  0  0  0  0  0  0
   12.1310   -6.6490    0.0000 C   0  0  0  0  0  0  0  0  0  0  0  0
   12.8830   -7.9460    0.0000 C   0  0  0  0  0  0  0  0  0  0  0  0
   14.3830   -7.9430    0.0000 C   0  0  0  0  0  0  0  0  0  0  0  0
   15.1360   -9.2410    0.0000 C   0  0  0  0  0  0  0  0  0  0  0  0
   16.6360   -9.2380    0.0000 C   0  0  0  0  0  0  0  0  0  0  0  0
   17.3880  -10.5350    0.0000 C   0  0  0  0  0  0  0  0  0  0  0  0
   10.1990   -8.4960    0.8900 H   0  0  0  0  0  0  0  0  0  0  0  0
   10.1990   -8.4960   -0.8900 H   0  0  0  0  0  0  0  0  0  0  0  0
    8.8010   -7.8200    0.0000 H   0  0  0  0  0  0  0  0  0  0  0  0
   10.3150   -6.1080   -0.8900 H   0  0  0  0  0  0  0  0  0  0  0  0
   10.3150   -6.1080    0.8900 H   0  0  0  0  0  0  0  0  0  0  0  0
   12.4450   -6.1030   -0.8900 H   0  0  0  0  0  0  0  0  0  0  0  0
   12.4450   -6.1030    0.8900 H   0  0  0  0  0  0  0  0  0  0  0  0
   12.5690   -8.4920    0.8900 H   0  0  0  0  0  0  0  0  0  0  0  0
   12.5690   -8.4920   -0.8900 H   0  0  0  0  0  0  0  0  0  0  0  0
   14.6970   -7.3970   -0.8900 H   0  0  0  0  0  0  0  0  0  0  0  0
   14.6970   -7.3970    0.8900 H   0  0  0  0  0  0  0  0  0  0  0  0
   14.8220   -9.7870   -0.8900 H   0  0  0  0  0  0  0  0  0  0  0  0
   14.8220   -9.7870    0.8900 H   0  0  0  0  0  0  0  0  0  0  0  0
   16.9500   -8.6920    0.8900 H   0  0  0  0  0  0  0  0  0  0  0  0
   16.9500   -8.6920   -0.8900 H   0  0  0  0  0  0  0  0  0  0  0  0
   17.0740  -11.0810   -0.8900 H   0  0  0  0  0  0  0  0  0  0  0  0
   18.4690  -10.3980    0.0000 H   0  0  0  0  0  0  0  0  0  0  0  0
   17.0740  -11.0810    0.8900 H   0  0  0  0  0  0  0  0  0  0  0  0
  1  2  1  0  0  0  0
  1  9  1  0  0  0  0
  1 10  1  0  0  0  0
  1 11  1  0  0  0  0
  2  3  1  0  0  0  0
  2 12  1  0  0  0  0
  2 13  1  0  0  0  0
  3  4  1  0  0  0  0
  3 14  1  0  0  0  0
  3 15  1  0  0  0  0
  4  5  1  0  0  0  0
  4 16  1  0  0  0  0
  4 17  1  0  0  0  0
  5  6  1  0  0  0  0
  5 18  1  0  0  0  0
  5 19  1  0  0  0  0
  6  7  1  0  0  0  0
  6 20  1  0  0  0  0
  6 21  1  0  0  0  0
  7  8  1  0  0  0  0
  7 22  1  0  0  0  0
  7 23  1  0  0  0  0
  8 24  1  0  0  0  0
  8 25  1  0  0  0  0
  8 26  1  0  0  0  0
M  END
