5gmp_11.pdb
  MOE2019           3D

 14 13  0  0  0  0  0  0  0  0999 V2000
   -4.9100  -16.6910    0.0000 C   0  0  0  0  0  0  0  0  0  0  0  0
   -4.1600  -15.3920    0.0000 C   0  0  0  0  0  0  0  0  0  0  0  0
   -2.6600  -15.3920    0.0000 C   0  0  0  0  0  0  0  0  0  0  0  0
   -1.9100  -14.0930    0.0000 C   0  0  0  0  0  0  0  0  0  0  0  0
   -4.5950  -17.2360    0.8900 H   0  0  0  0  0  0  0  0  0  0  0  0
   -5.9920  -16.5570    0.0000 H   0  0  0  0  0  0  0  0  0  0  0  0
   -4.5950  -17.2360   -0.8900 H   0  0  0  0  0  0  0  0  0  0  0  0
   -4.4750  -14.8470   -0.8900 H   0  0  0  0  0  0  0  0  0  0  0  0
   -4.4750  -14.8470    0.8900 H   0  0  0  0  0  0  0  0  0  0  0  0
   -2.3450  -15.9370   -0.8900 H   0  0  0  0  0  0  0  0  0  0  0  0
   -2.3450  -15.9370    0.8900 H   0  0  0  0  0  0  0  0  0  0  0  0
   -2.2250  -13.5480    0.8900 H   0  0  0  0  0  0  0  0  0  0  0  0
   -2.2250  -13.5480   -0.8900 H   0  0  0  0  0  0  0  0  0  0  0  0
   -0.8280  -14.2270    0.0000 H   0  0  0  0  0  0  0  0  0  0  0  0
  1  2  1  0  0  0  0
  1  5  1  0  0  0  0
  1  6  1  0  0  0  0
  1  7  1  0  0  0  0
  2  3  1  0  0  0  0
  2  8  1  0  0  0  0
  2  9  1  0  0  0  0
  3  4  1  0  0  0  0
  3 10  1  0  0  0  0
  3 11  1  0  0  0  0
  4 12  1  0  0  0  0
  4 13  1  0  0  0  0
  4 14  1  0  0  0  0
M  END
