5gmp_8.pdb
  MOE2019           3D

 20 19  0  0  0  0  0  0  0  0999 V2000
    9.5570   12.9230    0.0000 C   0  0  0  0  0  0  0  0  0  0  0  0
   10.2950   11.6170    0.0000 C   0  0  0  0  0  0  0  0  0  0  0  0
   11.7950   11.6020    0.0000 C   0  0  0  0  0  0  0  0  0  0  0  0
   12.5320   10.2960    0.0000 C   0  0  0  0  0  0  0  0  0  0  0  0
   14.0320   10.2810    0.0000 C   0  0  0  0  0  0  0  0  0  0  0  0
   14.7690    8.9750    0.0000 C   0  0  0  0  0  0  0  0  0  0  0  0
    9.8770   13.4650   -0.8900 H   0  0  0  0  0  0  0  0  0  0  0  0
    9.8770   13.4650    0.8900 H   0  0  0  0  0  0  0  0  0  0  0  0
    8.4740   12.7990    0.0000 H   0  0  0  0  0  0  0  0  0  0  0  0
    9.9750   11.0750    0.8900 H   0  0  0  0  0  0  0  0  0  0  0  0
    9.9750   11.0750   -0.8900 H   0  0  0  0  0  0  0  0  0  0  0  0
   12.1150   12.1440   -0.8900 H   0  0  0  0  0  0  0  0  0  0  0  0
   12.1150   12.1440    0.8900 H   0  0  0  0  0  0  0  0  0  0  0  0
   12.2120    9.7540    0.8900 H   0  0  0  0  0  0  0  0  0  0  0  0
   12.2120    9.7540   -0.8900 H   0  0  0  0  0  0  0  0  0  0  0  0
   14.3520   10.8230    0.8900 H   0  0  0  0  0  0  0  0  0  0  0  0
   14.3520   10.8230   -0.8900 H   0  0  0  0  0  0  0  0  0  0  0  0
   14.4490    8.4330   -0.8900 H   0  0  0  0  0  0  0  0  0  0  0  0
   15.8520    9.0990    0.0000 H   0  0  0  0  0  0  0  0  0  0  0  0
   14.4490    8.4330    0.8900 H   0  0  0  0  0  0  0  0  0  0  0  0
  1  2  1  0  0  0  0
  1  7  1  0  0  0  0
  1  8  1  0  0  0  0
  1  9  1  0  0  0  0
  2  3  1  0  0  0  0
  2 10  1  0  0  0  0
  2 11  1  0  0  0  0
  3  4  1  0  0  0  0
  3 12  1  0  0  0  0
  3 13  1  0  0  0  0
  4  5  1  0  0  0  0
  4 14  1  0  0  0  0
  4 15  1  0  0  0  0
  5  6  1  0  0  0  0
  5 16  1  0  0  0  0
  5 17  1  0  0  0  0
  6 18  1  0  0  0  0
  6 19  1  0  0  0  0
  6 20  1  0  0  0  0
M  END
