5hzn_6.pdb
  MOE2019           3D

 22 21  0  0  0  0  0  0  0  0999 V2000
    7.5810   10.6250    0.0000 C   0  0  0  0  0  0  0  0  0  0  0  0
    8.8740    9.8660    0.0000 C   0  0  0  0  0  0  0  0  0  0  0  0
   10.1790   10.6060    0.0000 O   0  0  0  0  0  0  0  0  0  0  0  0
   11.4720    9.8470    0.0000 C   0  0  0  0  0  0  0  0  0  0  0  0
   12.7770   10.5870    0.0000 C   0  0  0  0  0  0  0  0  0  0  0  0
   14.0700    9.8280    0.0000 O   0  0  0  0  0  0  0  0  0  0  0  0
   15.3750   10.5680    0.0000 C   0  0  0  0  0  0  0  0  0  0  0  0
   16.6680    9.8090    0.0000 C   0  0  0  0  0  0  0  0  0  0  0  0
    7.5860   11.2540    0.8900 H   0  0  0  0  0  0  0  0  0  0  0  0
    6.7060    9.9750    0.0000 H   0  0  0  0  0  0  0  0  0  0  0  0
    7.5860   11.2540   -0.8900 H   0  0  0  0  0  0  0  0  0  0  0  0
    8.8690    9.2370   -0.8900 H   0  0  0  0  0  0  0  0  0  0  0  0
    8.8690    9.2370    0.8900 H   0  0  0  0  0  0  0  0  0  0  0  0
   11.4670    9.2180   -0.8900 H   0  0  0  0  0  0  0  0  0  0  0  0
   11.4670    9.2180    0.8900 H   0  0  0  0  0  0  0  0  0  0  0  0
   12.7820   11.2160    0.8900 H   0  0  0  0  0  0  0  0  0  0  0  0
   12.7820   11.2160   -0.8900 H   0  0  0  0  0  0  0  0  0  0  0  0
   15.3800   11.1970    0.8900 H   0  0  0  0  0  0  0  0  0  0  0  0
   15.3800   11.1970   -0.8900 H   0  0  0  0  0  0  0  0  0  0  0  0
   16.6630    9.1800   -0.8900 H   0  0  0  0  0  0  0  0  0  0  0  0
   17.5430   10.4590    0.0000 H   0  0  0  0  0  0  0  0  0  0  0  0
   16.6630    9.1800    0.8900 H   0  0  0  0  0  0  0  0  0  0  0  0
  1  2  1  0  0  0  0
  1  9  1  0  0  0  0
  1 10  1  0  0  0  0
  1 11  1  0  0  0  0
  2  3  1  0  0  0  0
  2 12  1  0  0  0  0
  2 13  1  0  0  0  0
  3  4  1  0  0  0  0
  4  5  1  0  0  0  0
  4 14  1  0  0  0  0
  4 15  1  0  0  0  0
  5  6  1  0  0  0  0
  5 16  1  0  0  0  0
  5 17  1  0  0  0  0
  6  7  1  0  0  0  0
  7  8  1  0  0  0  0
  7 18  1  0  0  0  0
  7 19  1  0  0  0  0
  8 20  1  0  0  0  0
  8 21  1  0  0  0  0
  8 22  1  0  0  0  0
M  END
