5j8o_8.pdb
  MOE2019           3D

 25 24  0  0  0  0  0  0  0  0999 V2000
    9.0030   -6.8010    0.0000 C   0  0  0  0  0  0  0  0  0  0  0  0
   10.3020   -7.5510    0.0000 C   0  0  0  0  0  0  0  0  0  0  0  0
   11.6010   -6.8010    0.0000 N   0  0  0  0  0  0  0  0  0  0  0  0
   12.9000   -7.5510    0.0000 C   0  0  0  0  0  0  0  0  0  0  0  0
   12.9000   -9.0510    0.0000 O   0  0  0  0  0  0  0  0  0  0  0  0
   14.1990   -6.8010    0.0000 C   0  0  0  0  0  0  0  0  0  0  0  0
   15.4980   -7.5510    0.0000 C   0  0  0  0  0  0  0  0  0  0  0  0
   16.7970   -6.8010    0.0000 C   0  0  0  0  0  0  0  0  0  0  0  0
   18.0960   -7.5510    0.0000 C   0  0  0  0  0  0  0  0  0  0  0  0
   18.0960   -9.0510    0.0000 O   0  0  0  0  0  0  0  0  0  0  0  0
   19.3950   -6.8010    0.0000 N   0  0  0  0  0  0  0  0  0  0  0  0
    9.0030   -6.1720    0.8900 H   0  0  0  0  0  0  0  0  0  0  0  0
    8.1330   -7.4580    0.0000 H   0  0  0  0  0  0  0  0  0  0  0  0
    9.0030   -6.1720   -0.8900 H   0  0  0  0  0  0  0  0  0  0  0  0
   10.3020   -8.1800   -0.8900 H   0  0  0  0  0  0  0  0  0  0  0  0
   10.3020   -8.1800    0.8900 H   0  0  0  0  0  0  0  0  0  0  0  0
   11.6010   -5.7910    0.0000 H   0  0  0  0  0  0  0  0  0  0  0  0
   14.1990   -6.1720    0.8900 H   0  0  0  0  0  0  0  0  0  0  0  0
   14.1990   -6.1720   -0.8900 H   0  0  0  0  0  0  0  0  0  0  0  0
   15.4980   -8.1800   -0.8900 H   0  0  0  0  0  0  0  0  0  0  0  0
   15.4980   -8.1800    0.8900 H   0  0  0  0  0  0  0  0  0  0  0  0
   16.7970   -6.1720    0.8900 H   0  0  0  0  0  0  0  0  0  0  0  0
   16.7970   -6.1720   -0.8900 H   0  0  0  0  0  0  0  0  0  0  0  0
   19.3950   -5.7910    0.0000 H   0  0  0  0  0  0  0  0  0  0  0  0
   20.2700   -7.3060    0.0000 H   0  0  0  0  0  0  0  0  0  0  0  0
  1  2  1  0  0  0  0
  1 12  1  0  0  0  0
  1 13  1  0  0  0  0
  1 14  1  0  0  0  0
  2  3  1  0  0  0  0
  2 15  1  0  0  0  0
  2 16  1  0  0  0  0
  3  4  1  0  0  0  0
  3 17  1  0  0  0  0
  4  5  2  0  0  0  0
  4  6  1  0  0  0  0
  6  7  1  0  0  0  0
  6 18  1  0  0  0  0
  6 19  1  0  0  0  0
  7  8  1  0  0  0  0
  7 20  1  0  0  0  0
  7 21  1  0  0  0  0
  8  9  1  0  0  0  0
  8 22  1  0  0  0  0
  8 23  1  0  0  0  0
  9 10  2  0  0  0  0
  9 11  1  0  0  0  0
 11 24  1  0  0  0  0
 11 25  1  0  0  0  0
M  END
