5j8o_21.pdb
  MOE2019           3D

 22 21  0  0  0  0  0  0  0  0999 V2000
    6.7110   -5.4490    0.0000 C   0  0  0  0  0  0  0  0  0  0  0  0
    8.2110   -5.4490    0.0000 C   0  0  0  0  0  0  0  0  0  0  0  0
    8.9610   -6.7480    0.0000 N   0  0  0  0  0  0  0  0  0  0  0  0
   10.4610   -6.7480    0.0000 C   0  0  0  0  0  0  0  0  0  0  0  0
   11.2110   -5.4490    0.0000 O   0  0  0  0  0  0  0  0  0  0  0  0
   11.2110   -8.0470    0.0000 C   0  0  0  0  0  0  0  0  0  0  0  0
   12.7110   -8.0470    0.0000 C   0  0  0  0  0  0  0  0  0  0  0  0
   13.4610   -9.3460    0.0000 C   0  0  0  0  0  0  0  0  0  0  0  0
   12.7110  -10.6450    0.0000 O   0  0  0  0  0  0  0  0  0  0  0  0
   14.9610   -9.3460    0.0000 N   0  0  0  0  0  0  0  0  0  0  0  0
    6.3960   -5.9940   -0.8900 H   0  0  0  0  0  0  0  0  0  0  0  0
    6.2870   -4.4450    0.0000 H   0  0  0  0  0  0  0  0  0  0  0  0
    6.3960   -5.9940    0.8900 H   0  0  0  0  0  0  0  0  0  0  0  0
    8.5260   -4.9040    0.8900 H   0  0  0  0  0  0  0  0  0  0  0  0
    8.5260   -4.9040   -0.8900 H   0  0  0  0  0  0  0  0  0  0  0  0
    8.4560   -7.6230    0.0000 H   0  0  0  0  0  0  0  0  0  0  0  0
   10.8960   -8.5920   -0.8900 H   0  0  0  0  0  0  0  0  0  0  0  0
   10.8960   -8.5920    0.8900 H   0  0  0  0  0  0  0  0  0  0  0  0
   13.0260   -7.5020    0.8900 H   0  0  0  0  0  0  0  0  0  0  0  0
   13.0260   -7.5020   -0.8900 H   0  0  0  0  0  0  0  0  0  0  0  0
   15.4660  -10.2210    0.0000 H   0  0  0  0  0  0  0  0  0  0  0  0
   15.4660   -8.4710    0.0000 H   0  0  0  0  0  0  0  0  0  0  0  0
  1  2  1  0  0  0  0
  1 11  1  0  0  0  0
  1 12  1  0  0  0  0
  1 13  1  0  0  0  0
  2  3  1  0  0  0  0
  2 14  1  0  0  0  0
  2 15  1  0  0  0  0
  3  4  1  0  0  0  0
  3 16  1  0  0  0  0
  4  5  2  0  0  0  0
  4  6  1  0  0  0  0
  6  7  1  0  0  0  0
  6 17  1  0  0  0  0
  6 18  1  0  0  0  0
  7  8  1  0  0  0  0
  7 19  1  0  0  0  0
  7 20  1  0  0  0  0
  8  9  2  0  0  0  0
  8 10  1  0  0  0  0
 10 21  1  0  0  0  0
 10 22  1  0  0  0  0
M  END
