5j8o_17.pdb
  MOE2019           3D

 23 22  0  0  0  0  0  0  0  0999 V2000
    9.4920   -6.6890    0.0000 C   0  0  0  0  0  0  0  0  0  0  0  0
   10.7910   -7.4390    0.0000 C   0  0  0  0  0  0  0  0  0  0  0  0
   12.0900   -6.6890    0.0000 N   0  0  0  0  0  0  0  0  0  0  0  0
   13.3900   -7.4390    0.0000 C   0  0  0  0  0  0  0  0  0  0  0  0
   13.3900   -8.9390    0.0000 O   0  0  0  0  0  0  0  0  0  0  0  0
   14.6890   -6.6890    0.0000 C   0  0  0  0  0  0  0  0  0  0  0  0
   15.9880   -7.4390    0.0000 O   0  0  0  0  0  0  0  0  0  0  0  0
   17.2870   -6.6890    0.0000 C   0  0  0  0  0  0  0  0  0  0  0  0
   18.5860   -7.4390    0.0000 C   0  0  0  0  0  0  0  0  0  0  0  0
   18.5860   -8.9390    0.0000 O   0  0  0  0  0  0  0  0  0  0  0  0
   19.8850   -6.6890    0.0000 N   0  0  0  0  0  0  0  0  0  0  0  0
    9.4920   -6.0600    0.8900 H   0  0  0  0  0  0  0  0  0  0  0  0
    8.6220   -7.3460    0.0000 H   0  0  0  0  0  0  0  0  0  0  0  0
    9.4920   -6.0600   -0.8900 H   0  0  0  0  0  0  0  0  0  0  0  0
   10.7910   -8.0680   -0.8900 H   0  0  0  0  0  0  0  0  0  0  0  0
   10.7910   -8.0680    0.8900 H   0  0  0  0  0  0  0  0  0  0  0  0
   12.0900   -5.6790    0.0000 H   0  0  0  0  0  0  0  0  0  0  0  0
   14.6890   -6.0600    0.8900 H   0  0  0  0  0  0  0  0  0  0  0  0
   14.6890   -6.0600   -0.8900 H   0  0  0  0  0  0  0  0  0  0  0  0
   17.2870   -6.0600    0.8900 H   0  0  0  0  0  0  0  0  0  0  0  0
   17.2870   -6.0600   -0.8900 H   0  0  0  0  0  0  0  0  0  0  0  0
   19.8850   -5.6790    0.0000 H   0  0  0  0  0  0  0  0  0  0  0  0
   20.7600   -7.1940    0.0000 H   0  0  0  0  0  0  0  0  0  0  0  0
  1  2  1  0  0  0  0
  1 12  1  0  0  0  0
  1 13  1  0  0  0  0
  1 14  1  0  0  0  0
  2  3  1  0  0  0  0
  2 15  1  0  0  0  0
  2 16  1  0  0  0  0
  3  4  1  0  0  0  0
  3 17  1  0  0  0  0
  4  5  2  0  0  0  0
  4  6  1  0  0  0  0
  6  7  1  0  0  0  0
  6 18  1  0  0  0  0
  6 19  1  0  0  0  0
  7  8  1  0  0  0  0
  8  9  1  0  0  0  0
  8 20  1  0  0  0  0
  8 21  1  0  0  0  0
  9 10  2  0  0  0  0
  9 11  1  0  0  0  0
 11 22  1  0  0  0  0
 11 23  1  0  0  0  0
M  END
