5j8o_10.pdb
  MOE2019           3D

 28 27  0  0  0  0  0  0  0  0999 V2000
    8.7450    3.0400    0.0000 C   0  0  0  0  0  0  0  0  0  0  0  0
   10.2450    3.0400    0.0000 C   0  0  0  0  0  0  0  0  0  0  0  0
   10.9950    4.3400    0.0000 N   0  0  0  0  0  0  0  0  0  0  0  0
   12.4950    4.3400    0.0000 C   0  0  0  0  0  0  0  0  0  0  0  0
   13.2450    3.0400    0.0000 O   0  0  0  0  0  0  0  0  0  0  0  0
   13.2450    5.6390    0.0000 C   0  0  0  0  0  0  0  0  0  0  0  0
   14.7450    5.6390    0.0000 C   0  0  0  0  0  0  0  0  0  0  0  0
   15.4950    6.9380    0.0000 C   0  0  0  0  0  0  0  0  0  0  0  0
   14.7450    8.2370    0.0000 O   0  0  0  0  0  0  0  0  0  0  0  0
   16.9950    6.9380    0.0000 N   0  0  0  0  0  0  0  0  0  0  0  0
   10.2450    5.6390    0.0000 C   0  0  0  0  0  0  0  0  0  0  0  0
    8.7450    5.6390    0.0000 C   0  0  0  0  0  0  0  0  0  0  0  0
    8.4300    2.4950   -0.8900 H   0  0  0  0  0  0  0  0  0  0  0  0
    8.3210    4.0440    0.0000 H   0  0  0  0  0  0  0  0  0  0  0  0
    8.4300    2.4950    0.8900 H   0  0  0  0  0  0  0  0  0  0  0  0
   10.5600    2.4950   -0.8900 H   0  0  0  0  0  0  0  0  0  0  0  0
   10.5600    2.4950    0.8900 H   0  0  0  0  0  0  0  0  0  0  0  0
   12.9300    6.1840    0.8900 H   0  0  0  0  0  0  0  0  0  0  0  0
   12.9300    6.1840   -0.8900 H   0  0  0  0  0  0  0  0  0  0  0  0
   15.0600    5.0940   -0.8900 H   0  0  0  0  0  0  0  0  0  0  0  0
   15.0600    5.0940    0.8900 H   0  0  0  0  0  0  0  0  0  0  0  0
   17.5000    6.0630    0.0000 H   0  0  0  0  0  0  0  0  0  0  0  0
   17.5000    7.8130    0.0000 H   0  0  0  0  0  0  0  0  0  0  0  0
   10.5600    6.1840   -0.8900 H   0  0  0  0  0  0  0  0  0  0  0  0
   10.5600    6.1840    0.8900 H   0  0  0  0  0  0  0  0  0  0  0  0
    8.4300    6.1840    0.8900 H   0  0  0  0  0  0  0  0  0  0  0  0
    8.3210    4.6350    0.0000 H   0  0  0  0  0  0  0  0  0  0  0  0
    8.4300    6.1840   -0.8900 H   0  0  0  0  0  0  0  0  0  0  0  0
  1  2  1  0  0  0  0
  1 13  1  0  0  0  0
  1 14  1  0  0  0  0
  1 15  1  0  0  0  0
  2  3  1  0  0  0  0
  2 16  1  0  0  0  0
  2 17  1  0  0  0  0
  3  4  1  0  0  0  0
  3 11  1  0  0  0  0
  4  5  2  0  0  0  0
  4  6  1  0  0  0  0
  6  7  1  0  0  0  0
  6 18  1  0  0  0  0
  6 19  1  0  0  0  0
  7  8  1  0  0  0  0
  7 20  1  0  0  0  0
  7 21  1  0  0  0  0
  8  9  2  0  0  0  0
  8 10  1  0  0  0  0
 10 22  1  0  0  0  0
 10 23  1  0  0  0  0
 11 12  1  0  0  0  0
 11 24  1  0  0  0  0
 11 25  1  0  0  0  0
 12 26  1  0  0  0  0
 12 27  1  0  0  0  0
 12 28  1  0  0  0  0
M  END
