5j8o_25.pdb
  MOE2019           3D

 11 10  0  0  0  0  0  0  0  0999 V2000
   11.7300   -0.4680    0.0000 C   0  0  0  0  0  0  0  0  0  0  0  0
   13.2300   -0.4680    0.0000 C   0  0  0  0  0  0  0  0  0  0  0  0
   13.9800   -1.7670    0.0000 C   0  0  0  0  0  0  0  0  0  0  0  0
   11.4150   -1.0130   -0.8900 H   0  0  0  0  0  0  0  0  0  0  0  0
   11.3060    0.5360    0.0000 H   0  0  0  0  0  0  0  0  0  0  0  0
   11.4150   -1.0130    0.8900 H   0  0  0  0  0  0  0  0  0  0  0  0
   13.5450    0.0770    0.8900 H   0  0  0  0  0  0  0  0  0  0  0  0
   13.5450    0.0770   -0.8900 H   0  0  0  0  0  0  0  0  0  0  0  0
   13.6650   -2.3120   -0.8900 H   0  0  0  0  0  0  0  0  0  0  0  0
   15.0620   -1.6330    0.0000 H   0  0  0  0  0  0  0  0  0  0  0  0
   13.6650   -2.3120    0.8900 H   0  0  0  0  0  0  0  0  0  0  0  0
  1  2  1  0  0  0  0
  1  4  1  0  0  0  0
  1  5  1  0  0  0  0
  1  6  1  0  0  0  0
  2  3  1  0  0  0  0
  2  7  1  0  0  0  0
  2  8  1  0  0  0  0
  3  9  1  0  0  0  0
  3 10  1  0  0  0  0
  3 11  1  0  0  0  0
M  END
