5j8o_19.pdb
  MOE2019           3D

 25 24  0  0  0  0  0  0  0  0999 V2000
    9.1930   -6.2420    0.0000 C   0  0  0  0  0  0  0  0  0  0  0  0
   10.4920   -6.9920    0.0000 C   0  0  0  0  0  0  0  0  0  0  0  0
   11.7910   -6.2420    0.0000 N   0  0  0  0  0  0  0  0  0  0  0  0
   13.0900   -6.9920    0.0000 C   0  0  0  0  0  0  0  0  0  0  0  0
   13.0900   -8.4920    0.0000 O   0  0  0  0  0  0  0  0  0  0  0  0
   14.3900   -6.2420    0.0000 C   0  0  0  0  0  0  0  0  0  0  0  0
   15.6890   -6.9920    0.0000 C   0  0  0  0  0  0  0  0  0  0  0  0
   16.9880   -6.2420    0.0000 C   0  0  0  0  0  0  0  0  0  0  0  0
   18.2870   -6.9920    0.0000 C   0  0  0  0  0  0  0  0  0  0  0  0
   18.2870   -8.4920    0.0000 O   0  0  0  0  0  0  0  0  0  0  0  0
   19.5860   -6.2420    0.0000 N   0  0  0  0  0  0  0  0  0  0  0  0
    9.1930   -5.6130    0.8900 H   0  0  0  0  0  0  0  0  0  0  0  0
    8.3230   -6.8990    0.0000 H   0  0  0  0  0  0  0  0  0  0  0  0
    9.1930   -5.6130   -0.8900 H   0  0  0  0  0  0  0  0  0  0  0  0
   10.4920   -7.6210   -0.8900 H   0  0  0  0  0  0  0  0  0  0  0  0
   10.4920   -7.6210    0.8900 H   0  0  0  0  0  0  0  0  0  0  0  0
   11.7910   -5.2320    0.0000 H   0  0  0  0  0  0  0  0  0  0  0  0
   14.3900   -5.6130    0.8900 H   0  0  0  0  0  0  0  0  0  0  0  0
   14.3900   -5.6130   -0.8900 H   0  0  0  0  0  0  0  0  0  0  0  0
   15.6890   -7.6210   -0.8900 H   0  0  0  0  0  0  0  0  0  0  0  0
   15.6890   -7.6210    0.8900 H   0  0  0  0  0  0  0  0  0  0  0  0
   16.9880   -5.6130    0.8900 H   0  0  0  0  0  0  0  0  0  0  0  0
   16.9880   -5.6130   -0.8900 H   0  0  0  0  0  0  0  0  0  0  0  0
   19.5860   -5.2320    0.0000 H   0  0  0  0  0  0  0  0  0  0  0  0
   20.4610   -6.7470    0.0000 H   0  0  0  0  0  0  0  0  0  0  0  0
  1  2  1  0  0  0  0
  1 12  1  0  0  0  0
  1 13  1  0  0  0  0
  1 14  1  0  0  0  0
  2  3  1  0  0  0  0
  2 15  1  0  0  0  0
  2 16  1  0  0  0  0
  3  4  1  0  0  0  0
  3 17  1  0  0  0  0
  4  5  2  0  0  0  0
  4  6  1  0  0  0  0
  6  7  1  0  0  0  0
  6 18  1  0  0  0  0
  6 19  1  0  0  0  0
  7  8  1  0  0  0  0
  7 20  1  0  0  0  0
  7 21  1  0  0  0  0
  8  9  1  0  0  0  0
  8 22  1  0  0  0  0
  8 23  1  0  0  0  0
  9 10  2  0  0  0  0
  9 11  1  0  0  0  0
 11 24  1  0  0  0  0
 11 25  1  0  0  0  0
M  END
