5j8o_18.pdb
  MOE2019           3D

 25 24  0  0  0  0  0  0  0  0999 V2000
    9.6570   -6.1360    0.0000 C   0  0  0  0  0  0  0  0  0  0  0  0
   10.9560   -6.8860    0.0000 C   0  0  0  0  0  0  0  0  0  0  0  0
   12.2550   -6.1360    0.0000 N   0  0  0  0  0  0  0  0  0  0  0  0
   13.5540   -6.8860    0.0000 C   0  0  0  0  0  0  0  0  0  0  0  0
   13.5540   -8.3860    0.0000 O   0  0  0  0  0  0  0  0  0  0  0  0
   14.8530   -6.1360    0.0000 C   0  0  0  0  0  0  0  0  0  0  0  0
   16.1520   -6.8860    0.0000 C   0  0  0  0  0  0  0  0  0  0  0  0
   17.4510   -6.1360    0.0000 C   0  0  0  0  0  0  0  0  0  0  0  0
   18.7500   -6.8860    0.0000 C   0  0  0  0  0  0  0  0  0  0  0  0
   18.7500   -8.3860    0.0000 O   0  0  0  0  0  0  0  0  0  0  0  0
   20.0490   -6.1360    0.0000 N   0  0  0  0  0  0  0  0  0  0  0  0
    9.6570   -5.5070    0.8900 H   0  0  0  0  0  0  0  0  0  0  0  0
    8.7870   -6.7930    0.0000 H   0  0  0  0  0  0  0  0  0  0  0  0
    9.6570   -5.5070   -0.8900 H   0  0  0  0  0  0  0  0  0  0  0  0
   10.9560   -7.5150   -0.8900 H   0  0  0  0  0  0  0  0  0  0  0  0
   10.9560   -7.5150    0.8900 H   0  0  0  0  0  0  0  0  0  0  0  0
   12.2550   -5.1260    0.0000 H   0  0  0  0  0  0  0  0  0  0  0  0
   14.8530   -5.5070    0.8900 H   0  0  0  0  0  0  0  0  0  0  0  0
   14.8530   -5.5070   -0.8900 H   0  0  0  0  0  0  0  0  0  0  0  0
   16.1520   -7.5150   -0.8900 H   0  0  0  0  0  0  0  0  0  0  0  0
   16.1520   -7.5150    0.8900 H   0  0  0  0  0  0  0  0  0  0  0  0
   17.4510   -5.5070    0.8900 H   0  0  0  0  0  0  0  0  0  0  0  0
   17.4510   -5.5070   -0.8900 H   0  0  0  0  0  0  0  0  0  0  0  0
   20.0490   -5.1260    0.0000 H   0  0  0  0  0  0  0  0  0  0  0  0
   20.9240   -6.6410    0.0000 H   0  0  0  0  0  0  0  0  0  0  0  0
  1  2  1  0  0  0  0
  1 12  1  0  0  0  0
  1 13  1  0  0  0  0
  1 14  1  0  0  0  0
  2  3  1  0  0  0  0
  2 15  1  0  0  0  0
  2 16  1  0  0  0  0
  3  4  1  0  0  0  0
  3 17  1  0  0  0  0
  4  5  2  0  0  0  0
  4  6  1  0  0  0  0
  6  7  1  0  0  0  0
  6 18  1  0  0  0  0
  6 19  1  0  0  0  0
  7  8  1  0  0  0  0
  7 20  1  0  0  0  0
  7 21  1  0  0  0  0
  8  9  1  0  0  0  0
  8 22  1  0  0  0  0
  8 23  1  0  0  0  0
  9 10  2  0  0  0  0
  9 11  1  0  0  0  0
 11 24  1  0  0  0  0
 11 25  1  0  0  0  0
M  END
