5l2i_6.pdb
  MOE2019           3D

 25 24  0  0  0  0  0  0  0  0999 V2000
    1.7670   14.3700    0.0000 C   0  0  0  0  0  0  0  0  0  0  0  0
    3.0660   15.1200    0.0000 C   0  0  0  0  0  0  0  0  0  0  0  0
    4.3650   14.3700    0.0000 O   0  0  0  0  0  0  0  0  0  0  0  0
    5.6640   15.1200    0.0000 C   0  0  0  0  0  0  0  0  0  0  0  0
    6.9630   14.3700    0.0000 C   0  0  0  0  0  0  0  0  0  0  0  0
    8.2620   15.1200    0.0000 O   0  0  0  0  0  0  0  0  0  0  0  0
    9.5610   14.3700    0.0000 C   0  0  0  0  0  0  0  0  0  0  0  0
   10.8600   15.1200    0.0000 C   0  0  0  0  0  0  0  0  0  0  0  0
   12.1590   14.3700    0.0000 O   0  0  0  0  0  0  0  0  0  0  0  0
   13.4590   15.1200    0.0000 N   0  0  0  0  0  0  0  0  0  0  0  0
    1.7670   13.7410   -0.8900 H   0  0  0  0  0  0  0  0  0  0  0  0
    1.7670   13.7410    0.8900 H   0  0  0  0  0  0  0  0  0  0  0  0
    0.8970   15.0270    0.0000 H   0  0  0  0  0  0  0  0  0  0  0  0
    3.0660   15.7490    0.8900 H   0  0  0  0  0  0  0  0  0  0  0  0
    3.0660   15.7490   -0.8900 H   0  0  0  0  0  0  0  0  0  0  0  0
    5.6640   15.7490    0.8900 H   0  0  0  0  0  0  0  0  0  0  0  0
    5.6640   15.7490   -0.8900 H   0  0  0  0  0  0  0  0  0  0  0  0
    6.9630   13.7410   -0.8900 H   0  0  0  0  0  0  0  0  0  0  0  0
    6.9630   13.7410    0.8900 H   0  0  0  0  0  0  0  0  0  0  0  0
    9.5610   13.7410   -0.8900 H   0  0  0  0  0  0  0  0  0  0  0  0
    9.5610   13.7410    0.8900 H   0  0  0  0  0  0  0  0  0  0  0  0
   10.8600   15.7490    0.8900 H   0  0  0  0  0  0  0  0  0  0  0  0
   10.8600   15.7490   -0.8900 H   0  0  0  0  0  0  0  0  0  0  0  0
   13.4590   16.1300    0.0000 H   0  0  0  0  0  0  0  0  0  0  0  0
   14.3340   14.6150    0.0000 H   0  0  0  0  0  0  0  0  0  0  0  0
  1  2  1  0  0  0  0
  1 11  1  0  0  0  0
  1 12  1  0  0  0  0
  1 13  1  0  0  0  0
  2  3  1  0  0  0  0
  2 14  1  0  0  0  0
  2 15  1  0  0  0  0
  3  4  1  0  0  0  0
  4  5  1  0  0  0  0
  4 16  1  0  0  0  0
  4 17  1  0  0  0  0
  5  6  1  0  0  0  0
  5 18  1  0  0  0  0
  5 19  1  0  0  0  0
  6  7  1  0  0  0  0
  7  8  1  0  0  0  0
  7 20  1  0  0  0  0
  7 21  1  0  0  0  0
  8  9  1  0  0  0  0
  8 22  1  0  0  0  0
  8 23  1  0  0  0  0
  9 10  1  0  0  0  0
 10 24  1  0  0  0  0
 10 25  1  0  0  0  0
M  END
