5l2i_21.pdb
  MOE2019           3D

 34 33  0  0  0  0  0  0  0  0999 V2000
   24.3240   -6.5180    0.0000 O   0  0  0  0  0  0  0  0  0  0  0  0
   23.0250   -5.7680    0.0000 C   0  0  0  0  0  0  0  0  0  0  0  0
   21.7260   -6.5180    0.0000 N   0  0  0  0  0  0  0  0  0  0  0  0
   20.4270   -5.7680    0.0000 C   0  0  0  0  0  0  0  0  0  0  0  0
   19.1280   -6.5180    0.0000 C   0  0  0  0  0  0  0  0  0  0  0  0
   17.8290   -5.7680    0.0000 C   0  0  0  0  0  0  0  0  0  0  0  0
   16.5300   -6.5180    0.0000 C   0  0  0  0  0  0  0  0  0  0  0  0
   15.2310   -5.7680    0.0000 C   0  0  0  0  0  0  0  0  0  0  0  0
   13.9320   -6.5180    0.0000 C   0  0  0  0  0  0  0  0  0  0  0  0
   12.6330   -5.7680    0.0000 C   0  0  0  0  0  0  0  0  0  0  0  0
   11.3340   -6.5180    0.0000 C   0  0  0  0  0  0  0  0  0  0  0  0
   23.0250   -4.2680    0.0000 C   0  0  0  0  0  0  0  0  0  0  0  0
   24.3240   -3.5180    0.0000 O   0  0  0  0  0  0  0  0  0  0  0  0
   24.8140   -3.7870    0.7800 H   0  0  0  0  0  0  0  0  0  0  0  0
   21.7260   -7.5280    0.0000 H   0  0  0  0  0  0  0  0  0  0  0  0
   20.4270   -5.1390   -0.8900 H   0  0  0  0  0  0  0  0  0  0  0  0
   20.4270   -5.1390    0.8900 H   0  0  0  0  0  0  0  0  0  0  0  0
   19.1280   -7.1470    0.8900 H   0  0  0  0  0  0  0  0  0  0  0  0
   19.1280   -7.1470   -0.8900 H   0  0  0  0  0  0  0  0  0  0  0  0
   17.8290   -5.1390   -0.8900 H   0  0  0  0  0  0  0  0  0  0  0  0
   17.8290   -5.1390    0.8900 H   0  0  0  0  0  0  0  0  0  0  0  0
   16.5300   -7.1470    0.8900 H   0  0  0  0  0  0  0  0  0  0  0  0
   16.5300   -7.1470   -0.8900 H   0  0  0  0  0  0  0  0  0  0  0  0
   15.2310   -5.1390   -0.8900 H   0  0  0  0  0  0  0  0  0  0  0  0
   15.2310   -5.1390    0.8900 H   0  0  0  0  0  0  0  0  0  0  0  0
   13.9320   -7.1470    0.8900 H   0  0  0  0  0  0  0  0  0  0  0  0
   13.9320   -7.1470   -0.8900 H   0  0  0  0  0  0  0  0  0  0  0  0
   12.6330   -5.1390   -0.8900 H   0  0  0  0  0  0  0  0  0  0  0  0
   12.6330   -5.1390    0.8900 H   0  0  0  0  0  0  0  0  0  0  0  0
   11.3340   -7.1470    0.8900 H   0  0  0  0  0  0  0  0  0  0  0  0
   11.3340   -7.1470   -0.8900 H   0  0  0  0  0  0  0  0  0  0  0  0
   10.4640   -5.8610    0.0000 H   0  0  0  0  0  0  0  0  0  0  0  0
   22.4800   -3.9530    0.8900 H   0  0  0  0  0  0  0  0  0  0  0  0
   22.4800   -3.9530   -0.8900 H   0  0  0  0  0  0  0  0  0  0  0  0
  1  2  2  0  0  0  0
  2  3  1  0  0  0  0
  2 12  1  0  0  0  0
  3  4  1  0  0  0  0
  3 15  1  0  0  0  0
  4  5  1  0  0  0  0
  4 16  1  0  0  0  0
  4 17  1  0  0  0  0
  5  6  1  0  0  0  0
  5 18  1  0  0  0  0
  5 19  1  0  0  0  0
  6  7  1  0  0  0  0
  6 20  1  0  0  0  0
  6 21  1  0  0  0  0
  7  8  1  0  0  0  0
  7 22  1  0  0  0  0
  7 23  1  0  0  0  0
  8  9  1  0  0  0  0
  8 24  1  0  0  0  0
  8 25  1  0  0  0  0
  9 10  1  0  0  0  0
  9 26  1  0  0  0  0
  9 27  1  0  0  0  0
 10 11  1  0  0  0  0
 10 28  1  0  0  0  0
 10 29  1  0  0  0  0
 11 30  1  0  0  0  0
 11 31  1  0  0  0  0
 11 32  1  0  0  0  0
 12 13  1  0  0  0  0
 12 33  1  0  0  0  0
 12 34  1  0  0  0  0
 13 14  1  0  0  0  0
M  END
