5l2i_23.pdb
  MOE2019           3D

 19 18  0  0  0  0  0  0  0  0999 V2000
    9.6550    9.6550    0.0000 O   0  0  0  0  0  0  0  0  0  0  0  0
    9.6550    8.1550    0.0000 C   0  0  0  0  0  0  0  0  0  0  0  0
    8.3560    7.4050    0.0000 N   0  0  0  0  0  0  0  0  0  0  0  0
    7.0570    8.1550    0.0000 C   0  0  0  0  0  0  0  0  0  0  0  0
    5.7580    7.4050    0.0000 C   0  0  0  0  0  0  0  0  0  0  0  0
    4.4590    8.1550    0.0000 C   0  0  0  0  0  0  0  0  0  0  0  0
   10.9540    7.4050    0.0000 C   0  0  0  0  0  0  0  0  0  0  0  0
   12.2530    8.1550    0.0000 O   0  0  0  0  0  0  0  0  0  0  0  0
   12.2660    8.7140   -0.7800 H   0  0  0  0  0  0  0  0  0  0  0  0
    8.3560    6.3950    0.0000 H   0  0  0  0  0  0  0  0  0  0  0  0
    7.0570    8.7840   -0.8900 H   0  0  0  0  0  0  0  0  0  0  0  0
    7.0570    8.7840    0.8900 H   0  0  0  0  0  0  0  0  0  0  0  0
    5.7580    6.7760    0.8900 H   0  0  0  0  0  0  0  0  0  0  0  0
    5.7580    6.7760   -0.8900 H   0  0  0  0  0  0  0  0  0  0  0  0
    4.4590    8.7840   -0.8900 H   0  0  0  0  0  0  0  0  0  0  0  0
    4.4590    8.7840    0.8900 H   0  0  0  0  0  0  0  0  0  0  0  0
    3.5890    7.4980    0.0000 H   0  0  0  0  0  0  0  0  0  0  0  0
   10.9540    6.7760   -0.8900 H   0  0  0  0  0  0  0  0  0  0  0  0
   10.9540    6.7760    0.8900 H   0  0  0  0  0  0  0  0  0  0  0  0
  1  2  2  0  0  0  0
  2  3  1  0  0  0  0
  2  7  1  0  0  0  0
  3  4  1  0  0  0  0
  3 10  1  0  0  0  0
  4  5  1  0  0  0  0
  4 11  1  0  0  0  0
  4 12  1  0  0  0  0
  5  6  1  0  0  0  0
  5 13  1  0  0  0  0
  5 14  1  0  0  0  0
  6 15  1  0  0  0  0
  6 16  1  0  0  0  0
  6 17  1  0  0  0  0
  7  8  1  0  0  0  0
  7 18  1  0  0  0  0
  7 19  1  0  0  0  0
  8  9  1  0  0  0  0
M  END
