5l2i_15.pdb
  MOE2019           3D

 22 21  0  0  0  0  0  0  0  0999 V2000
   -0.1450   -1.2840    0.0000 O   0  0  0  0  0  0  0  0  0  0  0  0
    0.6050   -2.5830    0.0000 C   0  0  0  0  0  0  0  0  0  0  0  0
    2.1050   -2.5830    0.0000 N   0  0  0  0  0  0  0  0  0  0  0  0
    2.8550   -1.2840    0.0000 C   0  0  0  0  0  0  0  0  0  0  0  0
    4.3550   -1.2840    0.0000 C   0  0  0  0  0  0  0  0  0  0  0  0
    5.1050    0.0150    0.0000 O   0  0  0  0  0  0  0  0  0  0  0  0
    6.6050    0.0150    0.0000 C   0  0  0  0  0  0  0  0  0  0  0  0
    7.3550    1.3140    0.0000 C   0  0  0  0  0  0  0  0  0  0  0  0
   -0.1450   -3.8820    0.0000 C   0  0  0  0  0  0  0  0  0  0  0  0
    2.6100   -3.4580    0.0000 H   0  0  0  0  0  0  0  0  0  0  0  0
    2.5400   -0.7390    0.8900 H   0  0  0  0  0  0  0  0  0  0  0  0
    2.5400   -0.7390   -0.8900 H   0  0  0  0  0  0  0  0  0  0  0  0
    4.6700   -1.8290   -0.8900 H   0  0  0  0  0  0  0  0  0  0  0  0
    4.6700   -1.8290    0.8900 H   0  0  0  0  0  0  0  0  0  0  0  0
    6.9200   -0.5300   -0.8900 H   0  0  0  0  0  0  0  0  0  0  0  0
    6.9200   -0.5300    0.8900 H   0  0  0  0  0  0  0  0  0  0  0  0
    7.0400    1.8590    0.8900 H   0  0  0  0  0  0  0  0  0  0  0  0
    8.4370    1.1800    0.0000 H   0  0  0  0  0  0  0  0  0  0  0  0
    7.0400    1.8590   -0.8900 H   0  0  0  0  0  0  0  0  0  0  0  0
    0.1700   -4.4270    0.8900 H   0  0  0  0  0  0  0  0  0  0  0  0
    0.1700   -4.4270   -0.8900 H   0  0  0  0  0  0  0  0  0  0  0  0
   -1.2270   -3.7480    0.0000 H   0  0  0  0  0  0  0  0  0  0  0  0
  1  2  2  0  0  0  0
  2  3  1  0  0  0  0
  2  9  1  0  0  0  0
  3  4  1  0  0  0  0
  3 10  1  0  0  0  0
  4  5  1  0  0  0  0
  4 11  1  0  0  0  0
  4 12  1  0  0  0  0
  5  6  1  0  0  0  0
  5 13  1  0  0  0  0
  5 14  1  0  0  0  0
  6  7  1  0  0  0  0
  7  8  1  0  0  0  0
  7 15  1  0  0  0  0
  7 16  1  0  0  0  0
  8 17  1  0  0  0  0
  8 18  1  0  0  0  0
  8 19  1  0  0  0  0
  9 20  1  0  0  0  0
  9 21  1  0  0  0  0
  9 22  1  0  0  0  0
M  END
