5l2s_3.pdb
  MOE2019           3D

 35 35  0  0  0  0  0  0  0  0999 V2000
   14.8420   -5.0760    0.0000 C   0  0  0  0  0  0  0  0  0  0  0  0
   13.7630   -5.0240    0.0000 H   0  0  0  0  0  0  0  0  0  0  0  0
   15.6650   -6.3300    0.0000 N   0  0  0  0  0  0  0  0  0  0  0  0
   17.1120   -5.9350    0.0000 N   0  0  0  0  0  0  0  0  0  0  0  0
   17.1840   -4.4370    0.0000 N   0  0  0  0  0  0  0  0  0  0  0  0
   18.4380   -3.6140    0.0000 C   0  0  0  0  0  0  0  0  0  0  0  0
   19.7780   -4.2890    0.0000 C   0  0  0  0  0  0  0  0  0  0  0  0
   21.0320   -3.4660    0.0000 O   0  0  0  0  0  0  0  0  0  0  0  0
   22.3710   -4.1410    0.0000 C   0  0  0  0  0  0  0  0  0  0  0  0
   23.6260   -3.3180    0.0000 C   0  0  0  0  0  0  0  0  0  0  0  0
   24.9650   -3.9930    0.0000 O   0  0  0  0  0  0  0  0  0  0  0  0
   26.2190   -3.1700    0.0000 C   0  0  0  0  0  0  0  0  0  0  0  0
   27.5590   -3.8450    0.0000 C   0  0  0  0  0  0  0  0  0  0  0  0
   28.8130   -3.0220    0.0000 O   0  0  0  0  0  0  0  0  0  0  0  0
   30.1530   -3.6970    0.0000 C   0  0  0  0  0  0  0  0  0  0  0  0
   31.4070   -2.8740    0.0000 C   0  0  0  0  0  0  0  0  0  0  0  0
   15.7810   -3.9060    0.0000 C   0  0  0  0  0  0  0  0  0  0  0  0
   18.4020   -2.9860    0.8900 H   0  0  0  0  0  0  0  0  0  0  0  0
   18.4020   -2.9860   -0.8900 H   0  0  0  0  0  0  0  0  0  0  0  0
   19.8140   -4.9170   -0.8900 H   0  0  0  0  0  0  0  0  0  0  0  0
   19.8140   -4.9170    0.8900 H   0  0  0  0  0  0  0  0  0  0  0  0
   22.4070   -4.7690   -0.8900 H   0  0  0  0  0  0  0  0  0  0  0  0
   22.4070   -4.7690    0.8900 H   0  0  0  0  0  0  0  0  0  0  0  0
   23.5900   -2.6900    0.8900 H   0  0  0  0  0  0  0  0  0  0  0  0
   23.5900   -2.6900   -0.8900 H   0  0  0  0  0  0  0  0  0  0  0  0
   26.1830   -2.5420    0.8900 H   0  0  0  0  0  0  0  0  0  0  0  0
   26.1830   -2.5420   -0.8900 H   0  0  0  0  0  0  0  0  0  0  0  0
   27.5950   -4.4730   -0.8900 H   0  0  0  0  0  0  0  0  0  0  0  0
   27.5950   -4.4730    0.8900 H   0  0  0  0  0  0  0  0  0  0  0  0
   30.1890   -4.3250   -0.8900 H   0  0  0  0  0  0  0  0  0  0  0  0
   30.1890   -4.3250    0.8900 H   0  0  0  0  0  0  0  0  0  0  0  0
   31.3710   -2.2460    0.8900 H   0  0  0  0  0  0  0  0  0  0  0  0
   32.3130   -3.4800    0.0000 H   0  0  0  0  0  0  0  0  0  0  0  0
   31.3710   -2.2460   -0.8900 H   0  0  0  0  0  0  0  0  0  0  0  0
   15.4970   -2.8640    0.0000 H   0  0  0  0  0  0  0  0  0  0  0  0
  1  2  1  0  0  0  0
  1  3  1  0  0  0  0
  1 17  2  0  0  0  0
  3  4  2  0  0  0  0
  4  5  1  0  0  0  0
  5  6  1  0  0  0  0
  5 17  1  0  0  0  0
  6  7  1  0  0  0  0
  6 18  1  0  0  0  0
  6 19  1  0  0  0  0
  7  8  1  0  0  0  0
  7 20  1  0  0  0  0
  7 21  1  0  0  0  0
  8  9  1  0  0  0  0
  9 10  1  0  0  0  0
  9 22  1  0  0  0  0
  9 23  1  0  0  0  0
 10 11  1  0  0  0  0
 10 24  1  0  0  0  0
 10 25  1  0  0  0  0
 11 12  1  0  0  0  0
 12 13  1  0  0  0  0
 12 26  1  0  0  0  0
 12 27  1  0  0  0  0
 13 14  1  0  0  0  0
 13 28  1  0  0  0  0
 13 29  1  0  0  0  0
 14 15  1  0  0  0  0
 15 16  1  0  0  0  0
 15 30  1  0  0  0  0
 15 31  1  0  0  0  0
 16 32  1  0  0  0  0
 16 33  1  0  0  0  0
 16 34  1  0  0  0  0
 17 35  1  0  0  0  0
M  END
