5l2t_7.pdb
  MOE2019           3D

 22 21  0  0  0  0  0  0  0  0999 V2000
   19.1750    5.1380    0.0000 O   0  0  0  0  0  0  0  0  0  0  0  0
   17.8760    4.3880    0.0000 C   0  0  0  0  0  0  0  0  0  0  0  0
   16.5770    5.1380    0.0000 N   0  0  0  0  0  0  0  0  0  0  0  0
   15.2780    4.3880    0.0000 C   0  0  0  0  0  0  0  0  0  0  0  0
   13.9790    5.1380    0.0000 C   0  0  0  0  0  0  0  0  0  0  0  0
   12.6800    4.3880    0.0000 C   0  0  0  0  0  0  0  0  0  0  0  0
   11.3810    5.1380    0.0000 C   0  0  0  0  0  0  0  0  0  0  0  0
   17.8760    2.8880    0.0000 C   0  0  0  0  0  0  0  0  0  0  0  0
   19.1750    2.1380    0.0000 O   0  0  0  0  0  0  0  0  0  0  0  0
   19.6650    2.4070   -0.7800 H   0  0  0  0  0  0  0  0  0  0  0  0
   16.5770    6.1480    0.0000 H   0  0  0  0  0  0  0  0  0  0  0  0
   15.2780    3.7590    0.8900 H   0  0  0  0  0  0  0  0  0  0  0  0
   15.2780    3.7590   -0.8900 H   0  0  0  0  0  0  0  0  0  0  0  0
   13.9790    5.7670   -0.8900 H   0  0  0  0  0  0  0  0  0  0  0  0
   13.9790    5.7670    0.8900 H   0  0  0  0  0  0  0  0  0  0  0  0
   12.6800    3.7590    0.8900 H   0  0  0  0  0  0  0  0  0  0  0  0
   12.6800    3.7590   -0.8900 H   0  0  0  0  0  0  0  0  0  0  0  0
   11.3810    5.7670   -0.8900 H   0  0  0  0  0  0  0  0  0  0  0  0
   11.3810    5.7670    0.8900 H   0  0  0  0  0  0  0  0  0  0  0  0
   10.5110    4.4810    0.0000 H   0  0  0  0  0  0  0  0  0  0  0  0
   17.3310    2.5730   -0.8900 H   0  0  0  0  0  0  0  0  0  0  0  0
   17.3310    2.5730    0.8900 H   0  0  0  0  0  0  0  0  0  0  0  0
  1  2  2  0  0  0  0
  2  3  1  0  0  0  0
  2  8  1  0  0  0  0
  3  4  1  0  0  0  0
  3 11  1  0  0  0  0
  4  5  1  0  0  0  0
  4 12  1  0  0  0  0
  4 13  1  0  0  0  0
  5  6  1  0  0  0  0
  5 14  1  0  0  0  0
  5 15  1  0  0  0  0
  6  7  1  0  0  0  0
  6 16  1  0  0  0  0
  6 17  1  0  0  0  0
  7 18  1  0  0  0  0
  7 19  1  0  0  0  0
  7 20  1  0  0  0  0
  8  9  1  0  0  0  0
  8 21  1  0  0  0  0
  8 22  1  0  0  0  0
  9 10  1  0  0  0  0
M  END
