5lli_6.pdb
  MOE2019           3D

 36 35  0  0  0  0  0  0  0  0999 V2000
    4.6810    2.8990    0.0000 C   0  0  0  0  0  0  0  0  0  0  0  0
    5.9770    3.6540    0.0000 C   0  0  0  0  0  0  0  0  0  0  0  0
    7.2790    2.9090    0.0000 O   0  0  0  0  0  0  0  0  0  0  0  0
    8.5750    3.6640    0.0000 C   0  0  0  0  0  0  0  0  0  0  0  0
    9.8770    2.9180    0.0000 C   0  0  0  0  0  0  0  0  0  0  0  0
   11.1730    3.6730    0.0000 O   0  0  0  0  0  0  0  0  0  0  0  0
   12.4750    2.9280    0.0000 C   0  0  0  0  0  0  0  0  0  0  0  0
   13.7710    3.6830    0.0000 C   0  0  0  0  0  0  0  0  0  0  0  0
   15.0730    2.9380    0.0000 O   0  0  0  0  0  0  0  0  0  0  0  0
   16.3690    3.6930    0.0000 C   0  0  0  0  0  0  0  0  0  0  0  0
   17.6710    2.9480    0.0000 C   0  0  0  0  0  0  0  0  0  0  0  0
   18.9670    3.7030    0.0000 O   0  0  0  0  0  0  0  0  0  0  0  0
   20.2690    2.9580    0.0000 C   0  0  0  0  0  0  0  0  0  0  0  0
   21.5650    3.7130    0.0000 C   0  0  0  0  0  0  0  0  0  0  0  0
    4.6830    2.2700    0.8900 H   0  0  0  0  0  0  0  0  0  0  0  0
    4.6830    2.2700   -0.8900 H   0  0  0  0  0  0  0  0  0  0  0  0
    3.8090    3.5530    0.0000 H   0  0  0  0  0  0  0  0  0  0  0  0
    5.9750    4.2830    0.8900 H   0  0  0  0  0  0  0  0  0  0  0  0
    5.9750    4.2830   -0.8900 H   0  0  0  0  0  0  0  0  0  0  0  0
    8.5730    4.2930   -0.8900 H   0  0  0  0  0  0  0  0  0  0  0  0
    8.5730    4.2930    0.8900 H   0  0  0  0  0  0  0  0  0  0  0  0
    9.8790    2.2890   -0.8900 H   0  0  0  0  0  0  0  0  0  0  0  0
    9.8790    2.2890    0.8900 H   0  0  0  0  0  0  0  0  0  0  0  0
   12.4770    2.2990    0.8900 H   0  0  0  0  0  0  0  0  0  0  0  0
   12.4770    2.2990   -0.8900 H   0  0  0  0  0  0  0  0  0  0  0  0
   13.7690    4.3120    0.8900 H   0  0  0  0  0  0  0  0  0  0  0  0
   13.7690    4.3120   -0.8900 H   0  0  0  0  0  0  0  0  0  0  0  0
   16.3670    4.3220   -0.8900 H   0  0  0  0  0  0  0  0  0  0  0  0
   16.3670    4.3220    0.8900 H   0  0  0  0  0  0  0  0  0  0  0  0
   17.6730    2.3190   -0.8900 H   0  0  0  0  0  0  0  0  0  0  0  0
   17.6730    2.3190    0.8900 H   0  0  0  0  0  0  0  0  0  0  0  0
   20.2710    2.3290    0.8900 H   0  0  0  0  0  0  0  0  0  0  0  0
   20.2710    2.3290   -0.8900 H   0  0  0  0  0  0  0  0  0  0  0  0
   21.5630    4.3420    0.8900 H   0  0  0  0  0  0  0  0  0  0  0  0
   21.5630    4.3420   -0.8900 H   0  0  0  0  0  0  0  0  0  0  0  0
   22.4370    3.0590    0.0000 H   0  0  0  0  0  0  0  0  0  0  0  0
  1  2  1  0  0  0  0
  1 15  1  0  0  0  0
  1 16  1  0  0  0  0
  1 17  1  0  0  0  0
  2  3  1  0  0  0  0
  2 18  1  0  0  0  0
  2 19  1  0  0  0  0
  3  4  1  0  0  0  0
  4  5  1  0  0  0  0
  4 20  1  0  0  0  0
  4 21  1  0  0  0  0
  5  6  1  0  0  0  0
  5 22  1  0  0  0  0
  5 23  1  0  0  0  0
  6  7  1  0  0  0  0
  7  8  1  0  0  0  0
  7 24  1  0  0  0  0
  7 25  1  0  0  0  0
  8  9  1  0  0  0  0
  8 26  1  0  0  0  0
  8 27  1  0  0  0  0
  9 10  1  0  0  0  0
 10 11  1  0  0  0  0
 10 28  1  0  0  0  0
 10 29  1  0  0  0  0
 11 12  1  0  0  0  0
 11 30  1  0  0  0  0
 11 31  1  0  0  0  0
 12 13  1  0  0  0  0
 13 14  1  0  0  0  0
 13 32  1  0  0  0  0
 13 33  1  0  0  0  0
 14 34  1  0  0  0  0
 14 35  1  0  0  0  0
 14 36  1  0  0  0  0
M  END
