5p9j_16.pdb
  MOE2019           3D

 26 25  0  0  0  0  0  0  0  0999 V2000
    8.9250    0.9460    0.0000 C   0  0  0  0  0  0  0  0  0  0  0  0
    9.6730   -0.3550    0.0000 C   0  0  0  0  0  0  0  0  0  0  0  0
   11.1730   -0.3570    0.0000 C   0  0  0  0  0  0  0  0  0  0  0  0
   11.9210   -1.6570    0.0000 C   0  0  0  0  0  0  0  0  0  0  0  0
   13.4210   -1.6600    0.0000 C   0  0  0  0  0  0  0  0  0  0  0  0
   14.1690   -2.9600    0.0000 C   0  0  0  0  0  0  0  0  0  0  0  0
   15.6690   -2.9630    0.0000 C   0  0  0  0  0  0  0  0  0  0  0  0
   16.4170   -4.2630    0.0000 C   0  0  0  0  0  0  0  0  0  0  0  0
    9.2410    1.4910   -0.8900 H   0  0  0  0  0  0  0  0  0  0  0  0
    9.2410    1.4910    0.8900 H   0  0  0  0  0  0  0  0  0  0  0  0
    7.8430    0.8130    0.0000 H   0  0  0  0  0  0  0  0  0  0  0  0
    9.3570   -0.9000    0.8900 H   0  0  0  0  0  0  0  0  0  0  0  0
    9.3570   -0.9000   -0.8900 H   0  0  0  0  0  0  0  0  0  0  0  0
   11.4880    0.1880   -0.8900 H   0  0  0  0  0  0  0  0  0  0  0  0
   11.4880    0.1880    0.8900 H   0  0  0  0  0  0  0  0  0  0  0  0
   11.6050   -2.2010    0.8900 H   0  0  0  0  0  0  0  0  0  0  0  0
   11.6050   -2.2010   -0.8900 H   0  0  0  0  0  0  0  0  0  0  0  0
   13.7370   -1.1160    0.8900 H   0  0  0  0  0  0  0  0  0  0  0  0
   13.7370   -1.1160   -0.8900 H   0  0  0  0  0  0  0  0  0  0  0  0
   13.8530   -3.5040   -0.8900 H   0  0  0  0  0  0  0  0  0  0  0  0
   13.8530   -3.5040    0.8900 H   0  0  0  0  0  0  0  0  0  0  0  0
   15.9850   -2.4190    0.8900 H   0  0  0  0  0  0  0  0  0  0  0  0
   15.9850   -2.4190   -0.8900 H   0  0  0  0  0  0  0  0  0  0  0  0
   16.1010   -4.8070   -0.8900 H   0  0  0  0  0  0  0  0  0  0  0  0
   16.1010   -4.8070    0.8900 H   0  0  0  0  0  0  0  0  0  0  0  0
   17.4990   -4.1310    0.0000 H   0  0  0  0  0  0  0  0  0  0  0  0
  1  2  1  0  0  0  0
  1  9  1  0  0  0  0
  1 10  1  0  0  0  0
  1 11  1  0  0  0  0
  2  3  1  0  0  0  0
  2 12  1  0  0  0  0
  2 13  1  0  0  0  0
  3  4  1  0  0  0  0
  3 14  1  0  0  0  0
  3 15  1  0  0  0  0
  4  5  1  0  0  0  0
  4 16  1  0  0  0  0
  4 17  1  0  0  0  0
  5  6  1  0  0  0  0
  5 18  1  0  0  0  0
  5 19  1  0  0  0  0
  6  7  1  0  0  0  0
  6 20  1  0  0  0  0
  6 21  1  0  0  0  0
  7  8  1  0  0  0  0
  7 22  1  0  0  0  0
  7 23  1  0  0  0  0
  8 24  1  0  0  0  0
  8 25  1  0  0  0  0
  8 26  1  0  0  0  0
M  END
