5p9j_2.pdb
  MOE2019           3D

 35 34  0  0  0  0  0  0  0  0999 V2000
    8.8810   -9.7890    0.0000 O   0  0  0  0  0  0  0  0  0  0  0  0
    7.5630   -9.0730    0.0000 C   0  0  0  0  0  0  0  0  0  0  0  0
    6.2840   -9.8570    0.0000 C   0  0  0  0  0  0  0  0  0  0  0  0
    4.9660   -9.1410    0.0000 O   0  0  0  0  0  0  0  0  0  0  0  0
    3.6870   -9.9250    0.0000 C   0  0  0  0  0  0  0  0  0  0  0  0
    2.3690   -9.2090    0.0000 C   0  0  0  0  0  0  0  0  0  0  0  0
    1.0900   -9.9930    0.0000 C   0  0  0  0  0  0  0  0  0  0  0  0
   -0.2280   -9.2770    0.0000 C   0  0  0  0  0  0  0  0  0  0  0  0
   -1.5070  -10.0610    0.0000 C   0  0  0  0  0  0  0  0  0  0  0  0
   -2.8260   -9.3450    0.0000 C   0  0  0  0  0  0  0  0  0  0  0  0
    7.5470   -8.4440   -0.8900 H   0  0  0  0  0  0  0  0  0  0  0  0
    7.5470   -8.4440    0.8900 H   0  0  0  0  0  0  0  0  0  0  0  0
    6.3000  -10.4860    0.8900 H   0  0  0  0  0  0  0  0  0  0  0  0
    6.3000  -10.4860   -0.8900 H   0  0  0  0  0  0  0  0  0  0  0  0
    3.7030  -10.5540    0.8900 H   0  0  0  0  0  0  0  0  0  0  0  0
    3.7030  -10.5540   -0.8900 H   0  0  0  0  0  0  0  0  0  0  0  0
    2.3530   -8.5800   -0.8900 H   0  0  0  0  0  0  0  0  0  0  0  0
    2.3530   -8.5800    0.8900 H   0  0  0  0  0  0  0  0  0  0  0  0
    1.1060  -10.6220    0.8900 H   0  0  0  0  0  0  0  0  0  0  0  0
    1.1060  -10.6220   -0.8900 H   0  0  0  0  0  0  0  0  0  0  0  0
   -0.2440   -8.6480   -0.8900 H   0  0  0  0  0  0  0  0  0  0  0  0
   -0.2440   -8.6480    0.8900 H   0  0  0  0  0  0  0  0  0  0  0  0
   -1.4900  -10.6900    0.8900 H   0  0  0  0  0  0  0  0  0  0  0  0
   -1.4900  -10.6900   -0.8900 H   0  0  0  0  0  0  0  0  0  0  0  0
   -2.8430   -8.7160   -0.8900 H   0  0  0  0  0  0  0  0  0  0  0  0
   -2.8430   -8.7160    0.8900 H   0  0  0  0  0  0  0  0  0  0  0  0
   -3.6780  -10.0250    0.0000 H   0  0  0  0  0  0  0  0  0  0  0  0
   11.5180  -11.2200    0.0000 O   0  0  0  0  0  0  0  0  0  0  0  0
   11.4790   -9.7210    0.0000 C   0  0  0  0  0  0  0  0  0  0  0  0
   12.7580   -8.9370    0.0000 N   0  0  0  0  0  0  0  0  0  0  0  0
   10.1600   -9.0050    0.0000 C   0  0  0  0  0  0  0  0  0  0  0  0
   12.7320   -7.9270    0.0000 H   0  0  0  0  0  0  0  0  0  0  0  0
   13.6460   -9.4190    0.0000 H   0  0  0  0  0  0  0  0  0  0  0  0
   10.1430   -8.3760   -0.8900 H   0  0  0  0  0  0  0  0  0  0  0  0
   10.1430   -8.3760    0.8900 H   0  0  0  0  0  0  0  0  0  0  0  0
  1  2  1  0  0  0  0
  1 31  1  0  0  0  0
  2  3  1  0  0  0  0
  2 11  1  0  0  0  0
  2 12  1  0  0  0  0
  3  4  1  0  0  0  0
  3 13  1  0  0  0  0
  3 14  1  0  0  0  0
  4  5  1  0  0  0  0
  5  6  1  0  0  0  0
  5 15  1  0  0  0  0
  5 16  1  0  0  0  0
  6  7  1  0  0  0  0
  6 17  1  0  0  0  0
  6 18  1  0  0  0  0
  7  8  1  0  0  0  0
  7 19  1  0  0  0  0
  7 20  1  0  0  0  0
  8  9  1  0  0  0  0
  8 21  1  0  0  0  0
  8 22  1  0  0  0  0
  9 10  1  0  0  0  0
  9 23  1  0  0  0  0
  9 24  1  0  0  0  0
 10 25  1  0  0  0  0
 10 26  1  0  0  0  0
 10 27  1  0  0  0  0
 28 29  2  0  0  0  0
 29 30  1  0  0  0  0
 29 31  1  0  0  0  0
 30 32  1  0  0  0  0
 30 33  1  0  0  0  0
 31 34  1  0  0  0  0
 31 35  1  0  0  0  0
M  END
