5p9j_4.pdb
  MOE2019           3D

 32 31  0  0  0  0  0  0  0  0999 V2000
   13.8810    3.8420    0.0000 O   0  0  0  0  0  0  0  0  0  0  0  0
   13.8410    5.3410    0.0000 C   0  0  0  0  0  0  0  0  0  0  0  0
   15.1190    6.1260    0.0000 N   0  0  0  0  0  0  0  0  0  0  0  0
   12.5220    6.0560    0.0000 C   0  0  0  0  0  0  0  0  0  0  0  0
   11.2440    5.2720    0.0000 C   0  0  0  0  0  0  0  0  0  0  0  0
    9.9250    5.9870    0.0000 O   0  0  0  0  0  0  0  0  0  0  0  0
    8.6470    5.2020    0.0000 C   0  0  0  0  0  0  0  0  0  0  0  0
    7.3280    5.9170    0.0000 C   0  0  0  0  0  0  0  0  0  0  0  0
    6.0490    5.1330    0.0000 C   0  0  0  0  0  0  0  0  0  0  0  0
    4.7310    5.8480    0.0000 O   0  0  0  0  0  0  0  0  0  0  0  0
    3.4520    5.0630    0.0000 C   0  0  0  0  0  0  0  0  0  0  0  0
    2.1340    5.7780    0.0000 C   0  0  0  0  0  0  0  0  0  0  0  0
    0.8550    4.9940    0.0000 C   0  0  0  0  0  0  0  0  0  0  0  0
   15.0920    7.1360    0.0000 H   0  0  0  0  0  0  0  0  0  0  0  0
   16.0070    5.6450    0.0000 H   0  0  0  0  0  0  0  0  0  0  0  0
   12.5050    6.6850   -0.8900 H   0  0  0  0  0  0  0  0  0  0  0  0
   12.5050    6.6850    0.8900 H   0  0  0  0  0  0  0  0  0  0  0  0
   11.2610    4.6430    0.8900 H   0  0  0  0  0  0  0  0  0  0  0  0
   11.2610    4.6430   -0.8900 H   0  0  0  0  0  0  0  0  0  0  0  0
    8.6640    4.5730    0.8900 H   0  0  0  0  0  0  0  0  0  0  0  0
    8.6640    4.5730   -0.8900 H   0  0  0  0  0  0  0  0  0  0  0  0
    7.3110    6.5460   -0.8900 H   0  0  0  0  0  0  0  0  0  0  0  0
    7.3110    6.5460    0.8900 H   0  0  0  0  0  0  0  0  0  0  0  0
    6.0660    4.5040    0.8900 H   0  0  0  0  0  0  0  0  0  0  0  0
    6.0660    4.5040   -0.8900 H   0  0  0  0  0  0  0  0  0  0  0  0
    3.4690    4.4340    0.8900 H   0  0  0  0  0  0  0  0  0  0  0  0
    3.4690    4.4340   -0.8900 H   0  0  0  0  0  0  0  0  0  0  0  0
    2.1170    6.4070   -0.8900 H   0  0  0  0  0  0  0  0  0  0  0  0
    2.1170    6.4070    0.8900 H   0  0  0  0  0  0  0  0  0  0  0  0
    0.8720    4.3650    0.8900 H   0  0  0  0  0  0  0  0  0  0  0  0
    0.8720    4.3650   -0.8900 H   0  0  0  0  0  0  0  0  0  0  0  0
   -0.0320    5.6280    0.0000 H   0  0  0  0  0  0  0  0  0  0  0  0
  1  2  2  0  0  0  0
  2  3  1  0  0  0  0
  2  4  1  0  0  0  0
  3 14  1  0  0  0  0
  3 15  1  0  0  0  0
  4  5  1  0  0  0  0
  4 16  1  0  0  0  0
  4 17  1  0  0  0  0
  5  6  1  0  0  0  0
  5 18  1  0  0  0  0
  5 19  1  0  0  0  0
  6  7  1  0  0  0  0
  7  8  1  0  0  0  0
  7 20  1  0  0  0  0
  7 21  1  0  0  0  0
  8  9  1  0  0  0  0
  8 22  1  0  0  0  0
  8 23  1  0  0  0  0
  9 10  1  0  0  0  0
  9 24  1  0  0  0  0
  9 25  1  0  0  0  0
 10 11  1  0  0  0  0
 11 12  1  0  0  0  0
 11 26  1  0  0  0  0
 11 27  1  0  0  0  0
 12 13  1  0  0  0  0
 12 28  1  0  0  0  0
 12 29  1  0  0  0  0
 13 30  1  0  0  0  0
 13 31  1  0  0  0  0
 13 32  1  0  0  0  0
M  END
