5p9j_15.pdb
  MOE2019           3D

 20 19  0  0  0  0  0  0  0  0999 V2000
    1.2180    7.6850    0.0000 C   0  0  0  0  0  0  0  0  0  0  0  0
    1.9660    6.3840    0.0000 C   0  0  0  0  0  0  0  0  0  0  0  0
    3.4660    6.3820    0.0000 C   0  0  0  0  0  0  0  0  0  0  0  0
    4.2130    5.0810    0.0000 C   0  0  0  0  0  0  0  0  0  0  0  0
    5.7130    5.0790    0.0000 C   0  0  0  0  0  0  0  0  0  0  0  0
    6.4610    3.7780    0.0000 C   0  0  0  0  0  0  0  0  0  0  0  0
    1.5340    8.2300   -0.8900 H   0  0  0  0  0  0  0  0  0  0  0  0
    1.5340    8.2300    0.8900 H   0  0  0  0  0  0  0  0  0  0  0  0
    0.1360    7.5520    0.0000 H   0  0  0  0  0  0  0  0  0  0  0  0
    1.6500    5.8390    0.8900 H   0  0  0  0  0  0  0  0  0  0  0  0
    1.6500    5.8390   -0.8900 H   0  0  0  0  0  0  0  0  0  0  0  0
    3.7820    6.9260   -0.8900 H   0  0  0  0  0  0  0  0  0  0  0  0
    3.7820    6.9260    0.8900 H   0  0  0  0  0  0  0  0  0  0  0  0
    3.8970    4.5370   -0.8900 H   0  0  0  0  0  0  0  0  0  0  0  0
    3.8970    4.5370    0.8900 H   0  0  0  0  0  0  0  0  0  0  0  0
    6.0290    5.6240    0.8900 H   0  0  0  0  0  0  0  0  0  0  0  0
    6.0290    5.6240   -0.8900 H   0  0  0  0  0  0  0  0  0  0  0  0
    6.1450    3.2330   -0.8900 H   0  0  0  0  0  0  0  0  0  0  0  0
    6.1450    3.2330    0.8900 H   0  0  0  0  0  0  0  0  0  0  0  0
    7.5430    3.9110    0.0000 H   0  0  0  0  0  0  0  0  0  0  0  0
  1  2  1  0  0  0  0
  1  7  1  0  0  0  0
  1  8  1  0  0  0  0
  1  9  1  0  0  0  0
  2  3  1  0  0  0  0
  2 10  1  0  0  0  0
  2 11  1  0  0  0  0
  3  4  1  0  0  0  0
  3 12  1  0  0  0  0
  3 13  1  0  0  0  0
  4  5  1  0  0  0  0
  4 14  1  0  0  0  0
  4 15  1  0  0  0  0
  5  6  1  0  0  0  0
  5 16  1  0  0  0  0
  5 17  1  0  0  0  0
  6 18  1  0  0  0  0
  6 19  1  0  0  0  0
  6 20  1  0  0  0  0
M  END
