5t8e_47.pdb
  MOE2019           3D

 27 28  0  0  0  0  0  0  0  0999 V2000
    6.6330   13.3150    0.0000 C   0  0  0  0  0  0  0  0  0  0  0  0
    7.6970   13.3490    0.0000 H   0  0  0  0  0  0  0  0  0  0  0  0
    5.1330   13.2670    0.0000 C   0  0  0  0  0  0  0  0  0  0  0  0
    3.6340   13.2200    0.0000 C   0  0  0  0  0  0  0  0  0  0  0  0
    2.8440   14.4940    0.0000 C   0  0  0  0  0  0  0  0  0  0  0  0
    1.3440   14.4470    0.0000 N   0  0  0  0  0  0  0  0  0  0  0  0
    0.6360   13.1250    0.0000 C   0  0  0  0  0  0  0  0  0  0  0  0
   -0.8640   13.0780    0.0000 N   0  0  0  0  0  0  0  0  0  0  0  0
   -1.5720   11.7550    0.0000 C   0  0  0  0  0  0  0  0  0  0  0  0
   -3.0710   11.7080    0.0000 C   0  0  0  0  0  0  0  0  0  0  0  0
   -3.8620   12.9830    0.0000 N   0  0  0  0  0  0  0  0  0  0  0  0
   -4.4450   12.9650    0.8250 H   0  0  0  0  0  0  0  0  0  0  0  0
   -3.1530   14.3050    0.0000 C   0  0  0  0  0  0  0  0  0  0  0  0
   -1.6540   14.3520    0.0000 C   0  0  0  0  0  0  0  0  0  0  0  0
    1.4260   11.8500    0.0000 C   0  0  0  0  0  0  0  0  0  0  0  0
    2.9260   11.8980    0.0000 C   0  0  0  0  0  0  0  0  0  0  0  0
    3.3540   15.4460    0.0000 H   0  0  0  0  0  0  0  0  0  0  0  0
   -1.2400   11.2200   -0.8900 H   0  0  0  0  0  0  0  0  0  0  0  0
   -1.2400   11.2200    0.8900 H   0  0  0  0  0  0  0  0  0  0  0  0
   -3.3680   11.1530    0.8900 H   0  0  0  0  0  0  0  0  0  0  0  0
   -3.3680   11.1530   -0.8900 H   0  0  0  0  0  0  0  0  0  0  0  0
   -3.4850   14.8400   -0.8900 H   0  0  0  0  0  0  0  0  0  0  0  0
   -3.4850   14.8400    0.8900 H   0  0  0  0  0  0  0  0  0  0  0  0
   -1.3570   14.9070    0.8900 H   0  0  0  0  0  0  0  0  0  0  0  0
   -1.3570   14.9070   -0.8900 H   0  0  0  0  0  0  0  0  0  0  0  0
    0.9160   10.8980    0.0000 H   0  0  0  0  0  0  0  0  0  0  0  0
    3.4960   10.9800    0.0000 H   0  0  0  0  0  0  0  0  0  0  0  0
  1  2  1  0  0  0  0
  1  3  3  0  0  0  0
  3  4  1  0  0  0  0
  4  5  1  0  0  0  0
  4 16  2  0  0  0  0
  5  6  2  0  0  0  0
  5 17  1  0  0  0  0
  6  7  1  0  0  0  0
  7  8  1  0  0  0  0
  7 15  2  0  0  0  0
  8  9  1  0  0  0  0
  8 14  1  0  0  0  0
  9 10  1  0  0  0  0
  9 18  1  0  0  0  0
  9 19  1  0  0  0  0
 10 11  1  0  0  0  0
 10 20  1  0  0  0  0
 10 21  1  0  0  0  0
 11 12  1  0  0  0  0
 11 13  1  0  0  0  0
 13 14  1  0  0  0  0
 13 22  1  0  0  0  0
 13 23  1  0  0  0  0
 14 24  1  0  0  0  0
 14 25  1  0  0  0  0
 15 16  1  0  0  0  0
 15 26  1  0  0  0  0
 16 27  1  0  0  0  0
M  END
