5t8e_10.pdb
  MOE2019           3D

 19 19  0  0  0  0  0  0  0  0999 V2000
   26.4700   -1.3070    0.0000 C   0  0  0  0  0  0  0  0  0  0  0  0
   27.5350   -1.3090    0.0000 H   0  0  0  0  0  0  0  0  0  0  0  0
   24.9700   -1.3040    0.0000 C   0  0  0  0  0  0  0  0  0  0  0  0
   23.4700   -1.3020    0.0000 C   0  0  0  0  0  0  0  0  0  0  0  0
   22.7220   -0.0020    0.0000 C   0  0  0  0  0  0  0  0  0  0  0  0
   21.2220    0.0000    0.0000 C   0  0  0  0  0  0  0  0  0  0  0  0
   20.4700   -1.2980    0.0000 N   0  0  0  0  0  0  0  0  0  0  0  0
   19.8870   -1.2970   -0.8250 H   0  0  0  0  0  0  0  0  0  0  0  0
   21.2180   -2.5980    0.0000 C   0  0  0  0  0  0  0  0  0  0  0  0
   22.7180   -2.6000    0.0000 C   0  0  0  0  0  0  0  0  0  0  0  0
   23.4700   -1.3020   -1.0900 H   0  0  0  0  0  0  0  0  0  0  0  0
   23.0370    0.5430   -0.8900 H   0  0  0  0  0  0  0  0  0  0  0  0
   23.0370    0.5430    0.8900 H   0  0  0  0  0  0  0  0  0  0  0  0
   20.9080    0.5450   -0.8900 H   0  0  0  0  0  0  0  0  0  0  0  0
   20.9080    0.5450    0.8900 H   0  0  0  0  0  0  0  0  0  0  0  0
   20.9030   -3.1430    0.8900 H   0  0  0  0  0  0  0  0  0  0  0  0
   20.9030   -3.1430   -0.8900 H   0  0  0  0  0  0  0  0  0  0  0  0
   23.0320   -3.1450    0.8900 H   0  0  0  0  0  0  0  0  0  0  0  0
   23.0320   -3.1450   -0.8900 H   0  0  0  0  0  0  0  0  0  0  0  0
  1  2  1  0  0  0  0
  1  3  3  0  0  0  0
  3  4  1  0  0  0  0
  4  5  1  0  0  0  0
  4 10  1  0  0  0  0
  4 11  1  0  0  0  0
  5  6  1  0  0  0  0
  5 12  1  0  0  0  0
  5 13  1  0  0  0  0
  6  7  1  0  0  0  0
  6 14  1  0  0  0  0
  6 15  1  0  0  0  0
  7  8  1  0  0  0  0
  7  9  1  0  0  0  0
  9 10  1  0  0  0  0
  9 16  1  0  0  0  0
  9 17  1  0  0  0  0
 10 18  1  0  0  0  0
 10 19  1  0  0  0  0
M  END
