5t8e_13.pdb
  MOE2019           3D

 12 12  0  0  0  0  0  0  0  0999 V2000
   23.2160    2.6380    0.0000 C   0  0  0  0  0  0  0  0  0  0  0  0
   22.1570    1.5750    0.0000 C   0  0  0  0  0  0  0  0  0  0  0  0
   21.0950    2.6340    0.0000 N   0  3  0  0  0  0  0  0  0  0  0  0
   22.1540    3.6970    0.0000 C   0  0  0  0  0  0  0  0  0  0  0  0
   23.2160    2.6380    1.0900 H   0  0  0  0  0  0  0  0  0  0  0  0
   24.1060    2.6390   -0.6290 H   0  0  0  0  0  0  0  0  0  0  0  0
   22.1580    0.9460    0.8900 H   0  0  0  0  0  0  0  0  0  0  0  0
   22.1580    0.9460   -0.8900 H   0  0  0  0  0  0  0  0  0  0  0  0
   21.0950    2.6340   -1.0100 H   0  0  0  0  0  0  0  0  0  0  0  0
   20.2700    2.6330    0.5830 H   0  0  0  0  0  0  0  0  0  0  0  0
   22.1530    4.3260   -0.8900 H   0  0  0  0  0  0  0  0  0  0  0  0
   22.1530    4.3260    0.8900 H   0  0  0  0  0  0  0  0  0  0  0  0
  1  2  1  0  0  0  0
  1  4  1  0  0  0  0
  1  5  1  0  0  0  0
  1  6  1  0  0  0  0
  2  3  1  0  0  0  0
  2  7  1  0  0  0  0
  2  8  1  0  0  0  0
  3  4  1  0  0  0  0
  3  9  1  0  0  0  0
  3 10  1  0  0  0  0
  4 11  1  0  0  0  0
  4 12  1  0  0  0  0
M  CHG  1   3   1
M  END
