5t8e_54.pdb
  MOE2019           3D

 20 20  0  0  0  0  0  0  0  0999 V2000
    0.7890   10.2060    0.0000 C   0  0  0  0  0  0  0  0  0  0  0  0
    1.8540   10.2050    0.0000 H   0  0  0  0  0  0  0  0  0  0  0  0
   -0.7110   10.2080    0.0000 C   0  0  0  0  0  0  0  0  0  0  0  0
   -2.2110   10.2100    0.0000 C   0  0  0  0  0  0  0  0  0  0  0  0
   -2.9590   11.5100    0.0000 C   0  0  0  0  0  0  0  0  0  0  0  0
   -4.4590   11.5120    0.0000 C   0  0  0  0  0  0  0  0  0  0  0  0
   -5.2110   10.2140    0.0000 N   0  3  0  0  0  0  0  0  0  0  0  0
   -4.4620    8.9140    0.0000 C   0  0  0  0  0  0  0  0  0  0  0  0
   -2.9620    8.9120    0.0000 C   0  0  0  0  0  0  0  0  0  0  0  0
   -2.2110   10.2100   -1.0900 H   0  0  0  0  0  0  0  0  0  0  0  0
   -2.6440   12.0550   -0.8900 H   0  0  0  0  0  0  0  0  0  0  0  0
   -2.6440   12.0550    0.8900 H   0  0  0  0  0  0  0  0  0  0  0  0
   -4.7730   12.0570   -0.8900 H   0  0  0  0  0  0  0  0  0  0  0  0
   -4.7730   12.0570    0.8900 H   0  0  0  0  0  0  0  0  0  0  0  0
   -5.2110   10.2140    1.0100 H   0  0  0  0  0  0  0  0  0  0  0  0
   -5.9250   10.2150   -0.7140 H   0  0  0  0  0  0  0  0  0  0  0  0
   -4.7770    8.3690    0.8900 H   0  0  0  0  0  0  0  0  0  0  0  0
   -4.7770    8.3690   -0.8900 H   0  0  0  0  0  0  0  0  0  0  0  0
   -2.6480    8.3670    0.8900 H   0  0  0  0  0  0  0  0  0  0  0  0
   -2.6480    8.3670   -0.8900 H   0  0  0  0  0  0  0  0  0  0  0  0
  1  2  1  0  0  0  0
  1  3  3  0  0  0  0
  3  4  1  0  0  0  0
  4  5  1  0  0  0  0
  4  9  1  0  0  0  0
  4 10  1  0  0  0  0
  5  6  1  0  0  0  0
  5 11  1  0  0  0  0
  5 12  1  0  0  0  0
  6  7  1  0  0  0  0
  6 13  1  0  0  0  0
  6 14  1  0  0  0  0
  7  8  1  0  0  0  0
  7 15  1  0  0  0  0
  7 16  1  0  0  0  0
  8  9  1  0  0  0  0
  8 17  1  0  0  0  0
  8 18  1  0  0  0  0
  9 19  1  0  0  0  0
  9 20  1  0  0  0  0
M  CHG  1   7   1
M  END
