5t8e_40.pdb
  MOE2019           3D

 32 31  0  0  0  0  0  0  0  0999 V2000
   -3.8620  -20.0440    0.0000 C   0  0  0  0  0  0  0  0  0  0  0  0
   -3.0690  -18.7710    0.0000 C   0  0  0  0  0  0  0  0  0  0  0  0
   -1.5700  -18.8200    0.0000 C   0  0  0  0  0  0  0  0  0  0  0  0
   -0.7780  -17.5470    0.0000 C   0  0  0  0  0  0  0  0  0  0  0  0
    0.7220  -17.5960    0.0000 C   0  0  0  0  0  0  0  0  0  0  0  0
    1.5140  -16.3230    0.0000 C   0  0  0  0  0  0  0  0  0  0  0  0
    3.0130  -16.3720    0.0000 C   0  0  0  0  0  0  0  0  0  0  0  0
    3.8060  -15.0980    0.0000 C   0  0  0  0  0  0  0  0  0  0  0  0
    5.3050  -15.1480    0.0000 C   0  0  0  0  0  0  0  0  0  0  0  0
    6.0970  -13.8740    0.0000 C   0  0  0  0  0  0  0  0  0  0  0  0
   -3.5660  -20.5990    0.8900 H   0  0  0  0  0  0  0  0  0  0  0  0
   -4.9390  -19.8740    0.0000 H   0  0  0  0  0  0  0  0  0  0  0  0
   -3.5660  -20.5990   -0.8900 H   0  0  0  0  0  0  0  0  0  0  0  0
   -3.3650  -18.2160   -0.8900 H   0  0  0  0  0  0  0  0  0  0  0  0
   -3.3650  -18.2160    0.8900 H   0  0  0  0  0  0  0  0  0  0  0  0
   -1.2730  -19.3750    0.8900 H   0  0  0  0  0  0  0  0  0  0  0  0
   -1.2730  -19.3750   -0.8900 H   0  0  0  0  0  0  0  0  0  0  0  0
   -1.0750  -16.9920   -0.8900 H   0  0  0  0  0  0  0  0  0  0  0  0
   -1.0750  -16.9920    0.8900 H   0  0  0  0  0  0  0  0  0  0  0  0
    1.0190  -18.1510    0.8900 H   0  0  0  0  0  0  0  0  0  0  0  0
    1.0190  -18.1510   -0.8900 H   0  0  0  0  0  0  0  0  0  0  0  0
    1.2170  -15.7680   -0.8900 H   0  0  0  0  0  0  0  0  0  0  0  0
    1.2170  -15.7680    0.8900 H   0  0  0  0  0  0  0  0  0  0  0  0
    3.3100  -16.9270   -0.8900 H   0  0  0  0  0  0  0  0  0  0  0  0
    3.3100  -16.9270    0.8900 H   0  0  0  0  0  0  0  0  0  0  0  0
    3.5100  -14.5430    0.8900 H   0  0  0  0  0  0  0  0  0  0  0  0
    3.5100  -14.5430   -0.8900 H   0  0  0  0  0  0  0  0  0  0  0  0
    5.6020  -15.7030   -0.8900 H   0  0  0  0  0  0  0  0  0  0  0  0
    5.6020  -15.7030    0.8900 H   0  0  0  0  0  0  0  0  0  0  0  0
    5.8000  -13.3190    0.8900 H   0  0  0  0  0  0  0  0  0  0  0  0
    5.8000  -13.3190   -0.8900 H   0  0  0  0  0  0  0  0  0  0  0  0
    7.1740  -14.0440    0.0000 H   0  0  0  0  0  0  0  0  0  0  0  0
  1  2  1  0  0  0  0
  1 11  1  0  0  0  0
  1 12  1  0  0  0  0
  1 13  1  0  0  0  0
  2  3  1  0  0  0  0
  2 14  1  0  0  0  0
  2 15  1  0  0  0  0
  3  4  1  0  0  0  0
  3 16  1  0  0  0  0
  3 17  1  0  0  0  0
  4  5  1  0  0  0  0
  4 18  1  0  0  0  0
  4 19  1  0  0  0  0
  5  6  1  0  0  0  0
  5 20  1  0  0  0  0
  5 21  1  0  0  0  0
  6  7  1  0  0  0  0
  6 22  1  0  0  0  0
  6 23  1  0  0  0  0
  7  8  1  0  0  0  0
  7 24  1  0  0  0  0
  7 25  1  0  0  0  0
  8  9  1  0  0  0  0
  8 26  1  0  0  0  0
  8 27  1  0  0  0  0
  9 10  1  0  0  0  0
  9 28  1  0  0  0  0
  9 29  1  0  0  0  0
 10 30  1  0  0  0  0
 10 31  1  0  0  0  0
 10 32  1  0  0  0  0
M  END
