5t8e_61.pdb
  MOE2019           3D

 32 31  0  0  0  0  0  0  0  0999 V2000
   17.8300   -3.1150    0.0000 C   0  0  0  0  0  0  0  0  0  0  0  0
   17.0800   -4.4140    0.0000 C   0  0  0  0  0  0  0  0  0  0  0  0
   15.5800   -4.4140    0.0000 C   0  0  0  0  0  0  0  0  0  0  0  0
   14.8300   -3.1150    0.0000 C   0  0  0  0  0  0  0  0  0  0  0  0
   13.3300   -3.1150    0.0000 C   0  0  0  0  0  0  0  0  0  0  0  0
   12.5800   -1.8160    0.0000 C   0  0  0  0  0  0  0  0  0  0  0  0
   11.0800   -1.8160    0.0000 C   0  0  0  0  0  0  0  0  0  0  0  0
   10.3300   -0.5160    0.0000 C   0  0  0  0  0  0  0  0  0  0  0  0
    8.8300   -0.5160    0.0000 C   0  0  0  0  0  0  0  0  0  0  0  0
    8.0800    0.7830    0.0000 C   0  0  0  0  0  0  0  0  0  0  0  0
   17.5150   -2.5700   -0.8900 H   0  0  0  0  0  0  0  0  0  0  0  0
   18.9120   -3.2490    0.0000 H   0  0  0  0  0  0  0  0  0  0  0  0
   17.5150   -2.5700    0.8900 H   0  0  0  0  0  0  0  0  0  0  0  0
   17.3950   -4.9590    0.8900 H   0  0  0  0  0  0  0  0  0  0  0  0
   17.3950   -4.9590   -0.8900 H   0  0  0  0  0  0  0  0  0  0  0  0
   15.2650   -4.9590    0.8900 H   0  0  0  0  0  0  0  0  0  0  0  0
   15.2650   -4.9590   -0.8900 H   0  0  0  0  0  0  0  0  0  0  0  0
   15.1450   -2.5700   -0.8900 H   0  0  0  0  0  0  0  0  0  0  0  0
   15.1450   -2.5700    0.8900 H   0  0  0  0  0  0  0  0  0  0  0  0
   13.0150   -3.6600    0.8900 H   0  0  0  0  0  0  0  0  0  0  0  0
   13.0150   -3.6600   -0.8900 H   0  0  0  0  0  0  0  0  0  0  0  0
   12.8950   -1.2710   -0.8900 H   0  0  0  0  0  0  0  0  0  0  0  0
   12.8950   -1.2710    0.8900 H   0  0  0  0  0  0  0  0  0  0  0  0
   10.7650   -2.3610    0.8900 H   0  0  0  0  0  0  0  0  0  0  0  0
   10.7650   -2.3610   -0.8900 H   0  0  0  0  0  0  0  0  0  0  0  0
   10.6450    0.0290   -0.8900 H   0  0  0  0  0  0  0  0  0  0  0  0
   10.6450    0.0290    0.8900 H   0  0  0  0  0  0  0  0  0  0  0  0
    8.5150   -1.0610    0.8900 H   0  0  0  0  0  0  0  0  0  0  0  0
    8.5150   -1.0610   -0.8900 H   0  0  0  0  0  0  0  0  0  0  0  0
    8.3950    1.3280   -0.8900 H   0  0  0  0  0  0  0  0  0  0  0  0
    6.9980    0.6490    0.0000 H   0  0  0  0  0  0  0  0  0  0  0  0
    8.3950    1.3280    0.8900 H   0  0  0  0  0  0  0  0  0  0  0  0
  1  2  1  0  0  0  0
  1 11  1  0  0  0  0
  1 12  1  0  0  0  0
  1 13  1  0  0  0  0
  2  3  1  0  0  0  0
  2 14  1  0  0  0  0
  2 15  1  0  0  0  0
  3  4  1  0  0  0  0
  3 16  1  0  0  0  0
  3 17  1  0  0  0  0
  4  5  1  0  0  0  0
  4 18  1  0  0  0  0
  4 19  1  0  0  0  0
  5  6  1  0  0  0  0
  5 20  1  0  0  0  0
  5 21  1  0  0  0  0
  6  7  1  0  0  0  0
  6 22  1  0  0  0  0
  6 23  1  0  0  0  0
  7  8  1  0  0  0  0
  7 24  1  0  0  0  0
  7 25  1  0  0  0  0
  8  9  1  0  0  0  0
  8 26  1  0  0  0  0
  8 27  1  0  0  0  0
  9 10  1  0  0  0  0
  9 28  1  0  0  0  0
  9 29  1  0  0  0  0
 10 30  1  0  0  0  0
 10 31  1  0  0  0  0
 10 32  1  0  0  0  0
M  END
