5t8e_37.pdb
  MOE2019           3D

 23 22  0  0  0  0  0  0  0  0999 V2000
   -0.8270    7.9300    0.0000 C   0  0  0  0  0  0  0  0  0  0  0  0
    0.4890    8.6490    0.0000 C   0  0  0  0  0  0  0  0  0  0  0  0
    1.7700    7.8690    0.0000 C   0  0  0  0  0  0  0  0  0  0  0  0
    3.0860    8.5890    0.0000 C   0  0  0  0  0  0  0  0  0  0  0  0
    4.3680    7.8090    0.0000 C   0  0  0  0  0  0  0  0  0  0  0  0
    5.6840    8.5290    0.0000 C   0  0  0  0  0  0  0  0  0  0  0  0
    6.9650    7.7490    0.0000 C   0  0  0  0  0  0  0  0  0  0  0  0
   -0.8420    7.3010    0.8900 H   0  0  0  0  0  0  0  0  0  0  0  0
   -1.6810    8.6080    0.0000 H   0  0  0  0  0  0  0  0  0  0  0  0
   -0.8420    7.3010   -0.8900 H   0  0  0  0  0  0  0  0  0  0  0  0
    0.5040    9.2780   -0.8900 H   0  0  0  0  0  0  0  0  0  0  0  0
    0.5040    9.2780    0.8900 H   0  0  0  0  0  0  0  0  0  0  0  0
    1.7550    7.2400    0.8900 H   0  0  0  0  0  0  0  0  0  0  0  0
    1.7550    7.2400   -0.8900 H   0  0  0  0  0  0  0  0  0  0  0  0
    3.1000    9.2180   -0.8900 H   0  0  0  0  0  0  0  0  0  0  0  0
    3.1000    9.2180    0.8900 H   0  0  0  0  0  0  0  0  0  0  0  0
    4.3540    7.1800   -0.8900 H   0  0  0  0  0  0  0  0  0  0  0  0
    4.3540    7.1800    0.8900 H   0  0  0  0  0  0  0  0  0  0  0  0
    5.6990    9.1580    0.8900 H   0  0  0  0  0  0  0  0  0  0  0  0
    5.6990    9.1580   -0.8900 H   0  0  0  0  0  0  0  0  0  0  0  0
    6.9500    7.1200   -0.8900 H   0  0  0  0  0  0  0  0  0  0  0  0
    6.9500    7.1200    0.8900 H   0  0  0  0  0  0  0  0  0  0  0  0
    7.8500    8.3850    0.0000 H   0  0  0  0  0  0  0  0  0  0  0  0
  1  2  1  0  0  0  0
  1  8  1  0  0  0  0
  1  9  1  0  0  0  0
  1 10  1  0  0  0  0
  2  3  1  0  0  0  0
  2 11  1  0  0  0  0
  2 12  1  0  0  0  0
  3  4  1  0  0  0  0
  3 13  1  0  0  0  0
  3 14  1  0  0  0  0
  4  5  1  0  0  0  0
  4 15  1  0  0  0  0
  4 16  1  0  0  0  0
  5  6  1  0  0  0  0
  5 17  1  0  0  0  0
  5 18  1  0  0  0  0
  6  7  1  0  0  0  0
  6 19  1  0  0  0  0
  6 20  1  0  0  0  0
  7 21  1  0  0  0  0
  7 22  1  0  0  0  0
  7 23  1  0  0  0  0
M  END
