5t8e_34.pdb
  MOE2019           3D

 14 13  0  0  0  0  0  0  0  0999 V2000
   -5.7950  -11.9850    0.0000 C   0  0  0  0  0  0  0  0  0  0  0  0
   -5.0970  -10.6570    0.0000 C   0  0  0  0  0  0  0  0  0  0  0  0
   -3.5990  -10.5970    0.0000 C   0  0  0  0  0  0  0  0  0  0  0  0
   -2.9010   -9.2690    0.0000 C   0  0  0  0  0  0  0  0  0  0  0  0
   -5.4590  -12.5170    0.8900 H   0  0  0  0  0  0  0  0  0  0  0  0
   -6.8810  -11.8940    0.0000 H   0  0  0  0  0  0  0  0  0  0  0  0
   -5.4590  -12.5170   -0.8900 H   0  0  0  0  0  0  0  0  0  0  0  0
   -5.4330  -10.1250   -0.8900 H   0  0  0  0  0  0  0  0  0  0  0  0
   -5.4330  -10.1250    0.8900 H   0  0  0  0  0  0  0  0  0  0  0  0
   -3.2630  -11.1290    0.8900 H   0  0  0  0  0  0  0  0  0  0  0  0
   -3.2630  -11.1290   -0.8900 H   0  0  0  0  0  0  0  0  0  0  0  0
   -3.2370   -8.7370    0.8900 H   0  0  0  0  0  0  0  0  0  0  0  0
   -3.2370   -8.7370   -0.8900 H   0  0  0  0  0  0  0  0  0  0  0  0
   -1.8150   -9.3600    0.0000 H   0  0  0  0  0  0  0  0  0  0  0  0
  1  2  1  0  0  0  0
  1  5  1  0  0  0  0
  1  6  1  0  0  0  0
  1  7  1  0  0  0  0
  2  3  1  0  0  0  0
  2  8  1  0  0  0  0
  2  9  1  0  0  0  0
  3  4  1  0  0  0  0
  3 10  1  0  0  0  0
  3 11  1  0  0  0  0
  4 12  1  0  0  0  0
  4 13  1  0  0  0  0
  4 14  1  0  0  0  0
M  END
