5t8e_2.pdb
  MOE2019           3D

 20 20  0  0  0  0  0  0  0  0999 V2000
   28.1480   -3.1290    0.0000 C   0  0  0  0  0  0  0  0  0  0  0  0
   29.2130   -3.1300    0.0000 H   0  0  0  0  0  0  0  0  0  0  0  0
   26.6480   -3.1270    0.0000 C   0  0  0  0  0  0  0  0  0  0  0  0
   25.1480   -3.1250    0.0000 C   0  0  0  0  0  0  0  0  0  0  0  0
   24.3990   -1.8250    0.0000 C   0  0  0  0  0  0  0  0  0  0  0  0
   22.8990   -1.8230    0.0000 C   0  0  0  0  0  0  0  0  0  0  0  0
   22.1480   -3.1210    0.0000 N   0  3  0  0  0  0  0  0  0  0  0  0
   22.8960   -4.4210    0.0000 C   0  0  0  0  0  0  0  0  0  0  0  0
   24.3960   -4.4230    0.0000 C   0  0  0  0  0  0  0  0  0  0  0  0
   25.1480   -3.1250   -1.0900 H   0  0  0  0  0  0  0  0  0  0  0  0
   24.7140   -1.2800   -0.8900 H   0  0  0  0  0  0  0  0  0  0  0  0
   24.7140   -1.2800    0.8900 H   0  0  0  0  0  0  0  0  0  0  0  0
   22.5850   -1.2780   -0.8900 H   0  0  0  0  0  0  0  0  0  0  0  0
   22.5850   -1.2780    0.8900 H   0  0  0  0  0  0  0  0  0  0  0  0
   22.1480   -3.1210    1.0100 H   0  0  0  0  0  0  0  0  0  0  0  0
   21.4340   -3.1200   -0.7140 H   0  0  0  0  0  0  0  0  0  0  0  0
   22.5810   -4.9660    0.8900 H   0  0  0  0  0  0  0  0  0  0  0  0
   22.5810   -4.9660   -0.8900 H   0  0  0  0  0  0  0  0  0  0  0  0
   24.7100   -4.9680    0.8900 H   0  0  0  0  0  0  0  0  0  0  0  0
   24.7100   -4.9680   -0.8900 H   0  0  0  0  0  0  0  0  0  0  0  0
  1  2  1  0  0  0  0
  1  3  3  0  0  0  0
  3  4  1  0  0  0  0
  4  5  1  0  0  0  0
  4  9  1  0  0  0  0
  4 10  1  0  0  0  0
  5  6  1  0  0  0  0
  5 11  1  0  0  0  0
  5 12  1  0  0  0  0
  6  7  1  0  0  0  0
  6 13  1  0  0  0  0
  6 14  1  0  0  0  0
  7  8  1  0  0  0  0
  7 15  1  0  0  0  0
  7 16  1  0  0  0  0
  8  9  1  0  0  0  0
  8 17  1  0  0  0  0
  8 18  1  0  0  0  0
  9 19  1  0  0  0  0
  9 20  1  0  0  0  0
M  CHG  1   7   1
M  END
