5t8e_53.pdb
  MOE2019           3D

 20 20  0  0  0  0  0  0  0  0999 V2000
    4.0940   11.7110    0.0000 C   0  0  0  0  0  0  0  0  0  0  0  0
    5.1590   11.6860    0.0000 H   0  0  0  0  0  0  0  0  0  0  0  0
    2.5950   11.7460    0.0000 C   0  0  0  0  0  0  0  0  0  0  0  0
    1.0950   11.7810    0.0000 C   0  0  0  0  0  0  0  0  0  0  0  0
    0.3150   10.4990    0.0000 C   0  0  0  0  0  0  0  0  0  0  0  0
   -1.1840   10.5340    0.0000 C   0  0  0  0  0  0  0  0  0  0  0  0
   -1.9040   11.8500    0.0000 N   0  3  0  0  0  0  0  0  0  0  0  0
   -1.1240   13.1320    0.0000 C   0  0  0  0  0  0  0  0  0  0  0  0
    0.3750   13.0970    0.0000 C   0  0  0  0  0  0  0  0  0  0  0  0
    1.0950   11.7810    1.0900 H   0  0  0  0  0  0  0  0  0  0  0  0
    0.6170    9.9470    0.8900 H   0  0  0  0  0  0  0  0  0  0  0  0
    0.6170    9.9470   -0.8900 H   0  0  0  0  0  0  0  0  0  0  0  0
   -1.5110    9.9960    0.8900 H   0  0  0  0  0  0  0  0  0  0  0  0
   -1.5110    9.9960   -0.8900 H   0  0  0  0  0  0  0  0  0  0  0  0
   -1.9040   11.8500   -1.0100 H   0  0  0  0  0  0  0  0  0  0  0  0
   -2.6180   11.8660    0.7140 H   0  0  0  0  0  0  0  0  0  0  0  0
   -1.4260   13.6840   -0.8900 H   0  0  0  0  0  0  0  0  0  0  0  0
   -1.4260   13.6840    0.8900 H   0  0  0  0  0  0  0  0  0  0  0  0
    0.7020   13.6350   -0.8900 H   0  0  0  0  0  0  0  0  0  0  0  0
    0.7020   13.6350    0.8900 H   0  0  0  0  0  0  0  0  0  0  0  0
  1  2  1  0  0  0  0
  1  3  3  0  0  0  0
  3  4  1  0  0  0  0
  4  5  1  0  0  0  0
  4  9  1  0  0  0  0
  4 10  1  0  0  0  0
  5  6  1  0  0  0  0
  5 11  1  0  0  0  0
  5 12  1  0  0  0  0
  6  7  1  0  0  0  0
  6 13  1  0  0  0  0
  6 14  1  0  0  0  0
  7  8  1  0  0  0  0
  7 15  1  0  0  0  0
  7 16  1  0  0  0  0
  8  9  1  0  0  0  0
  8 17  1  0  0  0  0
  8 18  1  0  0  0  0
  9 19  1  0  0  0  0
  9 20  1  0  0  0  0
M  CHG  1   7   1
M  END
