5t8e_30.pdb
  MOE2019           3D

 40 41  0  0  0  0  0  0  0  0999 V2000
    5.2520  -12.8770    0.0000 C   0  0  0  0  0  0  0  0  0  0  0  0
    6.3170  -12.8780    0.0000 H   0  0  0  0  0  0  0  0  0  0  0  0
    3.7520  -12.8750    0.0000 C   0  0  0  0  0  0  0  0  0  0  0  0
    2.2520  -12.8730    0.0000 C   0  0  0  0  0  0  0  0  0  0  0  0
    1.5030  -11.5730    0.0000 C   0  0  0  0  0  0  0  0  0  0  0  0
    0.0030  -11.5720    0.0000 C   0  0  0  0  0  0  0  0  0  0  0  0
   -0.7480  -12.8700    0.0000 N   0  3  0  0  0  0  0  0  0  0  0  0
   -2.2480  -12.8680    0.0000 C   0  0  0  0  0  0  0  0  0  0  0  0
   -2.9970  -11.5680    0.0000 C   0  0  0  0  0  0  0  0  0  0  0  0
   -4.4970  -11.5660    0.0000 C   0  0  0  0  0  0  0  0  0  0  0  0
   -5.2480  -12.8640    0.0000 N   0  0  0  0  0  0  0  0  0  0  0  0
   -6.7480  -12.8630    0.0000 C   0  0  0  0  0  0  0  0  0  0  0  0
   -7.5000  -14.1610    0.0000 O   0  0  0  0  0  0  0  0  0  0  0  0
   -7.4970  -11.5630    0.0000 C   0  0  0  0  0  0  0  0  0  0  0  0
   -4.5000  -14.1640    0.0000 C   0  0  0  0  0  0  0  0  0  0  0  0
   -3.0000  -14.1660    0.0000 C   0  0  0  0  0  0  0  0  0  0  0  0
    0.0000  -14.1700    0.0000 C   0  0  0  0  0  0  0  0  0  0  0  0
    1.5000  -14.1710    0.0000 C   0  0  0  0  0  0  0  0  0  0  0  0
    2.2520  -12.8730   -1.0900 H   0  0  0  0  0  0  0  0  0  0  0  0
    1.8180  -11.0280   -0.8900 H   0  0  0  0  0  0  0  0  0  0  0  0
    1.8180  -11.0280    0.8900 H   0  0  0  0  0  0  0  0  0  0  0  0
   -0.3110  -11.0270   -0.8900 H   0  0  0  0  0  0  0  0  0  0  0  0
   -0.3110  -11.0270    0.8900 H   0  0  0  0  0  0  0  0  0  0  0  0
   -0.7480  -12.8700    1.0100 H   0  0  0  0  0  0  0  0  0  0  0  0
   -2.2480  -12.8680   -1.0900 H   0  0  0  0  0  0  0  0  0  0  0  0
   -2.6820  -11.0230    0.8900 H   0  0  0  0  0  0  0  0  0  0  0  0
   -2.6820  -11.0230   -0.8900 H   0  0  0  0  0  0  0  0  0  0  0  0
   -4.8110  -11.0210   -0.8900 H   0  0  0  0  0  0  0  0  0  0  0  0
   -4.8110  -11.0210    0.8900 H   0  0  0  0  0  0  0  0  0  0  0  0
   -7.1820  -11.0180    0.8900 H   0  0  0  0  0  0  0  0  0  0  0  0
   -7.1820  -11.0180   -0.8900 H   0  0  0  0  0  0  0  0  0  0  0  0
   -8.5790  -11.6970    0.0000 H   0  0  0  0  0  0  0  0  0  0  0  0
   -4.8150  -14.7090    0.8900 H   0  0  0  0  0  0  0  0  0  0  0  0
   -4.8150  -14.7090   -0.8900 H   0  0  0  0  0  0  0  0  0  0  0  0
   -2.6860  -14.7110   -0.8900 H   0  0  0  0  0  0  0  0  0  0  0  0
   -2.6860  -14.7110    0.8900 H   0  0  0  0  0  0  0  0  0  0  0  0
   -0.3150  -14.7150    0.8900 H   0  0  0  0  0  0  0  0  0  0  0  0
   -0.3150  -14.7150   -0.8900 H   0  0  0  0  0  0  0  0  0  0  0  0
    1.8140  -14.7160    0.8900 H   0  0  0  0  0  0  0  0  0  0  0  0
    1.8140  -14.7160   -0.8900 H   0  0  0  0  0  0  0  0  0  0  0  0
  1  2  1  0  0  0  0
  1  3  3  0  0  0  0
  3  4  1  0  0  0  0
  4  5  1  0  0  0  0
  4 18  1  0  0  0  0
  4 19  1  0  0  0  0
  5  6  1  0  0  0  0
  5 20  1  0  0  0  0
  5 21  1  0  0  0  0
  6  7  1  0  0  0  0
  6 22  1  0  0  0  0
  6 23  1  0  0  0  0
  7  8  1  0  0  0  0
  7 17  1  0  0  0  0
  7 24  1  0  0  0  0
  8  9  1  0  0  0  0
  8 16  1  0  0  0  0
  8 25  1  0  0  0  0
  9 10  1  0  0  0  0
  9 26  1  0  0  0  0
  9 27  1  0  0  0  0
 10 11  1  0  0  0  0
 10 28  1  0  0  0  0
 10 29  1  0  0  0  0
 11 12  1  0  0  0  0
 11 15  1  0  0  0  0
 12 13  2  0  0  0  0
 12 14  1  0  0  0  0
 14 30  1  0  0  0  0
 14 31  1  0  0  0  0
 14 32  1  0  0  0  0
 15 16  1  0  0  0  0
 15 33  1  0  0  0  0
 15 34  1  0  0  0  0
 16 35  1  0  0  0  0
 16 36  1  0  0  0  0
 17 18  1  0  0  0  0
 17 37  1  0  0  0  0
 17 38  1  0  0  0  0
 18 39  1  0  0  0  0
 18 40  1  0  0  0  0
M  CHG  1   7   1
M  END
