5t8e_52.pdb
  MOE2019           3D

 20 20  0  0  0  0  0  0  0  0999 V2000
    4.1530   11.7570    0.0000 C   0  0  0  0  0  0  0  0  0  0  0  0
    5.2180   11.7250    0.0000 H   0  0  0  0  0  0  0  0  0  0  0  0
    2.6540   11.8020    0.0000 C   0  0  0  0  0  0  0  0  0  0  0  0
    1.1550   11.8460    0.0000 C   0  0  0  0  0  0  0  0  0  0  0  0
    0.3660   10.5700    0.0000 C   0  0  0  0  0  0  0  0  0  0  0  0
   -1.1330   10.6150    0.0000 C   0  0  0  0  0  0  0  0  0  0  0  0
   -1.8440   11.9360    0.0000 N   0  3  0  0  0  0  0  0  0  0  0  0
   -1.0550   13.2120    0.0000 C   0  0  0  0  0  0  0  0  0  0  0  0
    0.4440   13.1670    0.0000 C   0  0  0  0  0  0  0  0  0  0  0  0
    1.1550   11.8460    1.0900 H   0  0  0  0  0  0  0  0  0  0  0  0
    0.6640   10.0160    0.8900 H   0  0  0  0  0  0  0  0  0  0  0  0
    0.6640   10.0160   -0.8900 H   0  0  0  0  0  0  0  0  0  0  0  0
   -1.4640   10.0800    0.8900 H   0  0  0  0  0  0  0  0  0  0  0  0
   -1.4640   10.0800   -0.8900 H   0  0  0  0  0  0  0  0  0  0  0  0
   -1.8440   11.9360   -1.0100 H   0  0  0  0  0  0  0  0  0  0  0  0
   -2.5580   11.9570    0.7140 H   0  0  0  0  0  0  0  0  0  0  0  0
   -1.3530   13.7660   -0.8900 H   0  0  0  0  0  0  0  0  0  0  0  0
   -1.3530   13.7660    0.8900 H   0  0  0  0  0  0  0  0  0  0  0  0
    0.7750   13.7020   -0.8900 H   0  0  0  0  0  0  0  0  0  0  0  0
    0.7750   13.7020    0.8900 H   0  0  0  0  0  0  0  0  0  0  0  0
  1  2  1  0  0  0  0
  1  3  3  0  0  0  0
  3  4  1  0  0  0  0
  4  5  1  0  0  0  0
  4  9  1  0  0  0  0
  4 10  1  0  0  0  0
  5  6  1  0  0  0  0
  5 11  1  0  0  0  0
  5 12  1  0  0  0  0
  6  7  1  0  0  0  0
  6 13  1  0  0  0  0
  6 14  1  0  0  0  0
  7  8  1  0  0  0  0
  7 15  1  0  0  0  0
  7 16  1  0  0  0  0
  8  9  1  0  0  0  0
  8 17  1  0  0  0  0
  8 18  1  0  0  0  0
  9 19  1  0  0  0  0
  9 20  1  0  0  0  0
M  CHG  1   7   1
M  END
