5tob_23.pdb
  MOE2019           3D

 36 35  0  0  0  0  0  0  0  0999 V2000
    5.6780  -19.2760    0.0000 N   0  0  0  0  0  0  0  0  0  0  0  0
    4.9580  -18.5680    0.0000 H   0  0  0  0  0  0  0  0  0  0  0  0
    7.1240  -18.8750    0.0000 N   0  0  0  0  0  0  0  0  0  0  0  0
    7.1890  -17.3760    0.0000 N   0  0  0  0  0  0  0  0  0  0  0  0
    8.4400  -16.5480    0.0000 C   0  0  0  0  0  0  0  0  0  0  0  0
    9.7820  -17.2170    0.0000 C   0  0  0  0  0  0  0  0  0  0  0  0
   11.0330  -16.3890    0.0000 O   0  0  0  0  0  0  0  0  0  0  0  0
   12.3750  -17.0580    0.0000 C   0  0  0  0  0  0  0  0  0  0  0  0
   13.6260  -16.2300    0.0000 C   0  0  0  0  0  0  0  0  0  0  0  0
   14.9690  -16.8990    0.0000 O   0  0  0  0  0  0  0  0  0  0  0  0
   16.2190  -16.0710    0.0000 C   0  0  0  0  0  0  0  0  0  0  0  0
   17.5620  -16.7400    0.0000 C   0  0  0  0  0  0  0  0  0  0  0  0
   18.8130  -15.9120    0.0000 O   0  0  0  0  0  0  0  0  0  0  0  0
   20.1550  -16.5810    0.0000 C   0  0  0  0  0  0  0  0  0  0  0  0
   21.4060  -15.7530    0.0000 C   0  0  0  0  0  0  0  0  0  0  0  0
    5.7840  -16.8510    0.0000 C   0  0  0  0  0  0  0  0  0  0  0  0
    5.8030  -15.7610    0.0000 H   0  0  0  0  0  0  0  0  0  0  0  0
    5.2640  -17.2050    0.8900 H   0  0  0  0  0  0  0  0  0  0  0  0
    5.2640  -17.2050   -0.8900 H   0  0  0  0  0  0  0  0  0  0  0  0
    8.4020  -15.9200    0.8900 H   0  0  0  0  0  0  0  0  0  0  0  0
    8.4020  -15.9200   -0.8900 H   0  0  0  0  0  0  0  0  0  0  0  0
    9.8200  -17.8450   -0.8900 H   0  0  0  0  0  0  0  0  0  0  0  0
    9.8200  -17.8450    0.8900 H   0  0  0  0  0  0  0  0  0  0  0  0
   12.4130  -17.6860   -0.8900 H   0  0  0  0  0  0  0  0  0  0  0  0
   12.4130  -17.6860    0.8900 H   0  0  0  0  0  0  0  0  0  0  0  0
   13.5870  -15.6020    0.8900 H   0  0  0  0  0  0  0  0  0  0  0  0
   13.5870  -15.6020   -0.8900 H   0  0  0  0  0  0  0  0  0  0  0  0
   16.1800  -15.4430    0.8900 H   0  0  0  0  0  0  0  0  0  0  0  0
   16.1800  -15.4430   -0.8900 H   0  0  0  0  0  0  0  0  0  0  0  0
   17.6010  -17.3680   -0.8900 H   0  0  0  0  0  0  0  0  0  0  0  0
   17.6010  -17.3680    0.8900 H   0  0  0  0  0  0  0  0  0  0  0  0
   20.1930  -17.2090   -0.8900 H   0  0  0  0  0  0  0  0  0  0  0  0
   20.1930  -17.2090    0.8900 H   0  0  0  0  0  0  0  0  0  0  0  0
   21.3680  -15.1250    0.8900 H   0  0  0  0  0  0  0  0  0  0  0  0
   22.3140  -16.3560    0.0000 H   0  0  0  0  0  0  0  0  0  0  0  0
   21.3680  -15.1250   -0.8900 H   0  0  0  0  0  0  0  0  0  0  0  0
  1  2  1  0  0  0  0
  1  3  2  0  0  0  0
  3  4  1  0  0  0  0
  4  5  1  0  0  0  0
  4 16  1  0  0  0  0
  5  6  1  0  0  0  0
  5 20  1  0  0  0  0
  5 21  1  0  0  0  0
  6  7  1  0  0  0  0
  6 22  1  0  0  0  0
  6 23  1  0  0  0  0
  7  8  1  0  0  0  0
  8  9  1  0  0  0  0
  8 24  1  0  0  0  0
  8 25  1  0  0  0  0
  9 10  1  0  0  0  0
  9 26  1  0  0  0  0
  9 27  1  0  0  0  0
 10 11  1  0  0  0  0
 11 12  1  0  0  0  0
 11 28  1  0  0  0  0
 11 29  1  0  0  0  0
 12 13  1  0  0  0  0
 12 30  1  0  0  0  0
 12 31  1  0  0  0  0
 13 14  1  0  0  0  0
 14 15  1  0  0  0  0
 14 32  1  0  0  0  0
 14 33  1  0  0  0  0
 15 34  1  0  0  0  0
 15 35  1  0  0  0  0
 15 36  1  0  0  0  0
 16 17  1  0  0  0  0
 16 18  1  0  0  0  0
 16 19  1  0  0  0  0
M  END
