5tob_7.pdb
  MOE2019           3D

 36 35  0  0  0  0  0  0  0  0999 V2000
  -14.4830  -13.1220    0.0000 N   0  0  0  0  0  0  0  0  0  0  0  0
  -15.2030  -13.8300    0.0000 H   0  0  0  0  0  0  0  0  0  0  0  0
  -13.0370  -13.5230    0.0000 N   0  0  0  0  0  0  0  0  0  0  0  0
  -12.9720  -15.0220    0.0000 N   0  0  0  0  0  0  0  0  0  0  0  0
  -11.7220  -15.8500    0.0000 C   0  0  0  0  0  0  0  0  0  0  0  0
  -10.3790  -15.1810    0.0000 C   0  0  0  0  0  0  0  0  0  0  0  0
   -9.1280  -16.0090    0.0000 O   0  0  0  0  0  0  0  0  0  0  0  0
   -7.7860  -15.3400    0.0000 C   0  0  0  0  0  0  0  0  0  0  0  0
   -6.5350  -16.1680    0.0000 C   0  0  0  0  0  0  0  0  0  0  0  0
   -5.1930  -15.4990    0.0000 O   0  0  0  0  0  0  0  0  0  0  0  0
   -3.9420  -16.3270    0.0000 C   0  0  0  0  0  0  0  0  0  0  0  0
   -2.5990  -15.6580    0.0000 C   0  0  0  0  0  0  0  0  0  0  0  0
   -2.5080  -14.1600    0.0000 O   0  0  0  0  0  0  0  0  0  0  0  0
   -1.1650  -13.4910    0.0000 C   0  0  0  0  0  0  0  0  0  0  0  0
   -1.0730  -11.9940    0.0000 C   0  0  0  0  0  0  0  0  0  0  0  0
  -14.3770  -15.5470    0.0000 C   0  0  0  0  0  0  0  0  0  0  0  0
  -15.0770  -14.7120    0.0000 H   0  0  0  0  0  0  0  0  0  0  0  0
  -14.5380  -16.1560    0.8900 H   0  0  0  0  0  0  0  0  0  0  0  0
  -14.5380  -16.1560   -0.8900 H   0  0  0  0  0  0  0  0  0  0  0  0
  -11.7610  -16.4780   -0.8900 H   0  0  0  0  0  0  0  0  0  0  0  0
  -11.7610  -16.4780    0.8900 H   0  0  0  0  0  0  0  0  0  0  0  0
  -10.3400  -14.5530    0.8900 H   0  0  0  0  0  0  0  0  0  0  0  0
  -10.3400  -14.5530   -0.8900 H   0  0  0  0  0  0  0  0  0  0  0  0
   -7.7480  -14.7120    0.8900 H   0  0  0  0  0  0  0  0  0  0  0  0
   -7.7480  -14.7120   -0.8900 H   0  0  0  0  0  0  0  0  0  0  0  0
   -6.5730  -16.7960   -0.8900 H   0  0  0  0  0  0  0  0  0  0  0  0
   -6.5730  -16.7960    0.8900 H   0  0  0  0  0  0  0  0  0  0  0  0
   -3.9810  -16.9550   -0.8900 H   0  0  0  0  0  0  0  0  0  0  0  0
   -3.9810  -16.9550    0.8900 H   0  0  0  0  0  0  0  0  0  0  0  0
   -2.0740  -16.0050   -0.8900 H   0  0  0  0  0  0  0  0  0  0  0  0
   -2.0740  -16.0050    0.8900 H   0  0  0  0  0  0  0  0  0  0  0  0
   -0.6400  -13.8390   -0.8900 H   0  0  0  0  0  0  0  0  0  0  0  0
   -0.6400  -13.8390    0.8900 H   0  0  0  0  0  0  0  0  0  0  0  0
   -1.5980  -11.6470    0.8900 H   0  0  0  0  0  0  0  0  0  0  0  0
   -0.0450  -11.6310    0.0000 H   0  0  0  0  0  0  0  0  0  0  0  0
   -1.5980  -11.6470   -0.8900 H   0  0  0  0  0  0  0  0  0  0  0  0
  1  2  1  0  0  0  0
  1  3  2  0  0  0  0
  3  4  1  0  0  0  0
  4  5  1  0  0  0  0
  4 16  1  0  0  0  0
  5  6  1  0  0  0  0
  5 20  1  0  0  0  0
  5 21  1  0  0  0  0
  6  7  1  0  0  0  0
  6 22  1  0  0  0  0
  6 23  1  0  0  0  0
  7  8  1  0  0  0  0
  8  9  1  0  0  0  0
  8 24  1  0  0  0  0
  8 25  1  0  0  0  0
  9 10  1  0  0  0  0
  9 26  1  0  0  0  0
  9 27  1  0  0  0  0
 10 11  1  0  0  0  0
 11 12  1  0  0  0  0
 11 28  1  0  0  0  0
 11 29  1  0  0  0  0
 12 13  1  0  0  0  0
 12 30  1  0  0  0  0
 12 31  1  0  0  0  0
 13 14  1  0  0  0  0
 14 15  1  0  0  0  0
 14 32  1  0  0  0  0
 14 33  1  0  0  0  0
 15 34  1  0  0  0  0
 15 35  1  0  0  0  0
 15 36  1  0  0  0  0
 16 17  1  0  0  0  0
 16 18  1  0  0  0  0
 16 19  1  0  0  0  0
M  END
