5trf_8.pdb
  MOE2019           3D

 23 22  0  0  0  0  0  0  0  0999 V2000
    9.8150    1.0630    0.0000 C   0  0  0  0  0  0  0  0  0  0  0  0
   10.5360    2.3790    0.0000 C   0  0  0  0  0  0  0  0  0  0  0  0
   12.0350    2.4130    0.0000 C   0  0  0  0  0  0  0  0  0  0  0  0
   12.7560    3.7280    0.0000 C   0  0  0  0  0  0  0  0  0  0  0  0
   14.2550    3.7620    0.0000 C   0  0  0  0  0  0  0  0  0  0  0  0
   14.9760    5.0780    0.0000 C   0  0  0  0  0  0  0  0  0  0  0  0
   16.4750    5.1120    0.0000 C   0  0  0  0  0  0  0  0  0  0  0  0
   10.1420    0.5250    0.8900 H   0  0  0  0  0  0  0  0  0  0  0  0
   10.2090    2.9170   -0.8900 H   0  0  0  0  0  0  0  0  0  0  0  0
   10.2090    2.9170    0.8900 H   0  0  0  0  0  0  0  0  0  0  0  0
   10.1420    0.5250   -0.8900 H   0  0  0  0  0  0  0  0  0  0  0  0
    8.7310    1.1730    0.0000 H   0  0  0  0  0  0  0  0  0  0  0  0
   12.3620    1.8750    0.8900 H   0  0  0  0  0  0  0  0  0  0  0  0
   12.3620    1.8750   -0.8900 H   0  0  0  0  0  0  0  0  0  0  0  0
   12.4290    4.2660   -0.8900 H   0  0  0  0  0  0  0  0  0  0  0  0
   12.4290    4.2660    0.8900 H   0  0  0  0  0  0  0  0  0  0  0  0
   14.5820    3.2240   -0.8900 H   0  0  0  0  0  0  0  0  0  0  0  0
   14.5820    3.2240    0.8900 H   0  0  0  0  0  0  0  0  0  0  0  0
   14.6490    5.6160    0.8900 H   0  0  0  0  0  0  0  0  0  0  0  0
   14.6490    5.6160   -0.8900 H   0  0  0  0  0  0  0  0  0  0  0  0
   16.8020    4.5740   -0.8900 H   0  0  0  0  0  0  0  0  0  0  0  0
   16.8020    4.5740    0.8900 H   0  0  0  0  0  0  0  0  0  0  0  0
   16.8760    6.1250    0.0000 H   0  0  0  0  0  0  0  0  0  0  0  0
  1  2  1  0  0  0  0
  1  8  1  0  0  0  0
  1 11  1  0  0  0  0
  1 12  1  0  0  0  0
  2  3  1  0  0  0  0
  2  9  1  0  0  0  0
  2 10  1  0  0  0  0
  3  4  1  0  0  0  0
  3 13  1  0  0  0  0
  3 14  1  0  0  0  0
  4  5  1  0  0  0  0
  4 15  1  0  0  0  0
  4 16  1  0  0  0  0
  5  6  1  0  0  0  0
  5 17  1  0  0  0  0
  5 18  1  0  0  0  0
  6  7  1  0  0  0  0
  6 19  1  0  0  0  0
  6 20  1  0  0  0  0
  7 21  1  0  0  0  0
  7 22  1  0  0  0  0
  7 23  1  0  0  0  0
M  END
