5v5y_3.pdb
  MOE2019           3D

 26 25  0  0  0  0  0  0  0  0999 V2000
   -1.3850   -3.0710    0.0000 O   0  0  0  0  0  0  0  0  0  0  0  0
   -0.0860   -3.8210    0.0000 C   0  0  0  0  0  0  0  0  0  0  0  0
    1.2130   -3.0710    0.0000 C   0  0  0  0  0  0  0  0  0  0  0  0
    2.5120   -3.8210    0.0000 O   0  0  0  0  0  0  0  0  0  0  0  0
    3.8110   -3.0710    0.0000 C   0  0  0  0  0  0  0  0  0  0  0  0
    5.1100   -3.8210    0.0000 C   0  0  0  0  0  0  0  0  0  0  0  0
   -2.6840   -3.8210    0.0000 C   0  0  0  0  0  0  0  0  0  0  0  0
   -3.9830   -3.0710    0.0000 C   0  0  0  0  0  0  0  0  0  0  0  0
   -5.2820   -3.8210    0.0000 O   0  0  0  0  0  0  0  0  0  0  0  0
   -6.5820   -3.0710    0.0000 C   0  0  0  0  0  0  0  0  0  0  0  0
   -0.0860   -4.4500   -0.8900 H   0  0  0  0  0  0  0  0  0  0  0  0
   -0.0860   -4.4500    0.8900 H   0  0  0  0  0  0  0  0  0  0  0  0
    1.2130   -2.4420    0.8900 H   0  0  0  0  0  0  0  0  0  0  0  0
    1.2130   -2.4420   -0.8900 H   0  0  0  0  0  0  0  0  0  0  0  0
    3.8110   -2.4420    0.8900 H   0  0  0  0  0  0  0  0  0  0  0  0
    3.8110   -2.4420   -0.8900 H   0  0  0  0  0  0  0  0  0  0  0  0
    5.1100   -4.4500   -0.8900 H   0  0  0  0  0  0  0  0  0  0  0  0
    5.9800   -3.1640    0.0000 H   0  0  0  0  0  0  0  0  0  0  0  0
    5.1100   -4.4500    0.8900 H   0  0  0  0  0  0  0  0  0  0  0  0
   -2.6840   -4.4500    0.8900 H   0  0  0  0  0  0  0  0  0  0  0  0
   -2.6840   -4.4500   -0.8900 H   0  0  0  0  0  0  0  0  0  0  0  0
   -3.9830   -2.4420   -0.8900 H   0  0  0  0  0  0  0  0  0  0  0  0
   -3.9830   -2.4420    0.8900 H   0  0  0  0  0  0  0  0  0  0  0  0
   -6.5820   -2.4420   -0.8900 H   0  0  0  0  0  0  0  0  0  0  0  0
   -7.4520   -3.7280    0.0000 H   0  0  0  0  0  0  0  0  0  0  0  0
   -6.5820   -2.4420    0.8900 H   0  0  0  0  0  0  0  0  0  0  0  0
  1  2  1  0  0  0  0
  1  7  1  0  0  0  0
  2  3  1  0  0  0  0
  2 11  1  0  0  0  0
  2 12  1  0  0  0  0
  3  4  1  0  0  0  0
  3 13  1  0  0  0  0
  3 14  1  0  0  0  0
  4  5  1  0  0  0  0
  5  6  1  0  0  0  0
  5 15  1  0  0  0  0
  5 16  1  0  0  0  0
  6 17  1  0  0  0  0
  6 18  1  0  0  0  0
  6 19  1  0  0  0  0
  7  8  1  0  0  0  0
  7 20  1  0  0  0  0
  7 21  1  0  0  0  0
  8  9  1  0  0  0  0
  8 22  1  0  0  0  0
  8 23  1  0  0  0  0
  9 10  1  0  0  0  0
 10 24  1  0  0  0  0
 10 25  1  0  0  0  0
 10 26  1  0  0  0  0
M  END
