5v9o_4.pdb
  MOE2019           3D

 68 68  0  0  0  0  0  0  0  0999 V2000
    7.1280   -5.1950    0.0000 N   0  0  0  0  0  0  0  0  0  0  0  0
    8.4540   -4.4940    0.0000 C   0  0  0  0  0  0  0  0  0  0  0  0
    9.7240   -5.2910    0.0000 C   0  0  0  0  0  0  0  0  0  0  0  0
   11.0500   -4.5900    0.0000 O   0  0  0  0  0  0  0  0  0  0  0  0
   12.3210   -5.3880    0.0000 C   0  0  0  0  0  0  0  0  0  0  0  0
   13.6470   -4.6870    0.0000 C   0  0  0  0  0  0  0  0  0  0  0  0
   14.9170   -5.4850    0.0000 O   0  0  0  0  0  0  0  0  0  0  0  0
   16.2430   -4.7840    0.0000 C   0  0  0  0  0  0  0  0  0  0  0  0
   17.5130   -5.5810    0.0000 C   0  0  0  0  0  0  0  0  0  0  0  0
   18.8390   -4.8800    0.0000 O   0  0  0  0  0  0  0  0  0  0  0  0
   20.1090   -5.6780    0.0000 C   0  0  0  0  0  0  0  0  0  0  0  0
   21.4350   -4.9770    0.0000 C   0  0  0  0  0  0  0  0  0  0  0  0
   22.7060   -5.7750    0.0000 C   0  0  0  0  0  0  0  0  0  0  0  0
   22.8070   -7.2710    0.0000 N   0  0  0  0  0  0  0  0  0  0  0  0
   24.2620   -7.6380    0.0000 N   0  0  0  0  0  0  0  0  0  0  0  0
   25.0590   -6.3670    0.0000 N   0  0  0  0  0  0  0  0  0  0  0  0
   26.5560   -6.2660    0.0000 C   0  0  0  0  0  0  0  0  0  0  0  0
   27.3920   -7.5120    0.0000 C   0  0  0  0  0  0  0  0  0  0  0  0
   28.8880   -7.4100    0.0000 O   0  0  0  0  0  0  0  0  0  0  0  0
   29.7240   -8.6560    0.0000 C   0  0  0  0  0  0  0  0  0  0  0  0
   31.2210   -8.5550    0.0000 C   0  0  0  0  0  0  0  0  0  0  0  0
   32.0570   -9.8000    0.0000 O   0  0  0  0  0  0  0  0  0  0  0  0
   33.5530   -9.6990    0.0000 C   0  0  0  0  0  0  0  0  0  0  0  0
   34.3890  -10.9450    0.0000 C   0  0  0  0  0  0  0  0  0  0  0  0
   35.8860  -10.8430    0.0000 O   0  0  0  0  0  0  0  0  0  0  0  0
   36.7220  -12.0890    0.0000 C   0  0  0  0  0  0  0  0  0  0  0  0
   38.2180  -11.9880    0.0000 C   0  0  0  0  0  0  0  0  0  0  0  0
   39.0540  -13.2330    0.0000 C   0  0  0  0  0  0  0  0  0  0  0  0
   38.3940  -14.5800    0.0000 O   0  0  0  0  0  0  0  0  0  0  0  0
   40.5510  -13.1320    0.0000 N   0  0  0  0  0  0  0  0  0  0  0  0
   24.0980   -5.2160    0.0000 C   0  0  0  0  0  0  0  0  0  0  0  0
    7.0900   -6.2040    0.0000 H   0  0  0  0  0  0  0  0  0  0  0  0
    6.2730   -4.6580    0.0000 H   0  0  0  0  0  0  0  0  0  0  0  0
    8.4770   -3.8650    0.8900 H   0  0  0  0  0  0  0  0  0  0  0  0
    8.4770   -3.8650   -0.8900 H   0  0  0  0  0  0  0  0  0  0  0  0
    9.7010   -5.9200   -0.8900 H   0  0  0  0  0  0  0  0  0  0  0  0
    9.7010   -5.9200    0.8900 H   0  0  0  0  0  0  0  0  0  0  0  0
   12.2980   -6.0170   -0.8900 H   0  0  0  0  0  0  0  0  0  0  0  0
   12.2980   -6.0170    0.8900 H   0  0  0  0  0  0  0  0  0  0  0  0
   13.6700   -4.0580    0.8900 H   0  0  0  0  0  0  0  0  0  0  0  0
   13.6700   -4.0580   -0.8900 H   0  0  0  0  0  0  0  0  0  0  0  0
   16.2660   -4.1550    0.8900 H   0  0  0  0  0  0  0  0  0  0  0  0
   16.2660   -4.1550   -0.8900 H   0  0  0  0  0  0  0  0  0  0  0  0
   17.4900   -6.2100   -0.8900 H   0  0  0  0  0  0  0  0  0  0  0  0
   17.4900   -6.2100    0.8900 H   0  0  0  0  0  0  0  0  0  0  0  0
   20.0860   -6.3070   -0.8900 H   0  0  0  0  0  0  0  0  0  0  0  0
   20.0860   -6.3070    0.8900 H   0  0  0  0  0  0  0  0  0  0  0  0
   21.4580   -4.3480    0.8900 H   0  0  0  0  0  0  0  0  0  0  0  0
   21.4580   -4.3480   -0.8900 H   0  0  0  0  0  0  0  0  0  0  0  0
   26.8330   -5.7010    0.8900 H   0  0  0  0  0  0  0  0  0  0  0  0
   26.8330   -5.7010   -0.8900 H   0  0  0  0  0  0  0  0  0  0  0  0
   27.1150   -8.0770   -0.8900 H   0  0  0  0  0  0  0  0  0  0  0  0
   27.1150   -8.0770    0.8900 H   0  0  0  0  0  0  0  0  0  0  0  0
   29.4470   -9.2210   -0.8900 H   0  0  0  0  0  0  0  0  0  0  0  0
   29.4470   -9.2210    0.8900 H   0  0  0  0  0  0  0  0  0  0  0  0
   31.4980   -7.9900    0.8900 H   0  0  0  0  0  0  0  0  0  0  0  0
   31.4980   -7.9900   -0.8900 H   0  0  0  0  0  0  0  0  0  0  0  0
   33.8300   -9.1340    0.8900 H   0  0  0  0  0  0  0  0  0  0  0  0
   33.8300   -9.1340   -0.8900 H   0  0  0  0  0  0  0  0  0  0  0  0
   34.1120  -11.5100   -0.8900 H   0  0  0  0  0  0  0  0  0  0  0  0
   34.1120  -11.5100    0.8900 H   0  0  0  0  0  0  0  0  0  0  0  0
   36.4450  -12.6540   -0.8900 H   0  0  0  0  0  0  0  0  0  0  0  0
   36.4450  -12.6540    0.8900 H   0  0  0  0  0  0  0  0  0  0  0  0
   38.4950  -11.4230    0.8900 H   0  0  0  0  0  0  0  0  0  0  0  0
   38.4950  -11.4230   -0.8900 H   0  0  0  0  0  0  0  0  0  0  0  0
   40.9960  -12.2250    0.0000 H   0  0  0  0  0  0  0  0  0  0  0  0
   41.1140  -13.9710    0.0000 H   0  0  0  0  0  0  0  0  0  0  0  0
   24.3620   -4.1690    0.0000 H   0  0  0  0  0  0  0  0  0  0  0  0
  1  2  1  0  0  0  0
  1 32  1  0  0  0  0
  1 33  1  0  0  0  0
  2  3  1  0  0  0  0
  2 34  1  0  0  0  0
  2 35  1  0  0  0  0
  3  4  1  0  0  0  0
  3 36  1  0  0  0  0
  3 37  1  0  0  0  0
  4  5  1  0  0  0  0
  5  6  1  0  0  0  0
  5 38  1  0  0  0  0
  5 39  1  0  0  0  0
  6  7  1  0  0  0  0
  6 40  1  0  0  0  0
  6 41  1  0  0  0  0
  7  8  1  0  0  0  0
  8  9  1  0  0  0  0
  8 42  1  0  0  0  0
  8 43  1  0  0  0  0
  9 10  1  0  0  0  0
  9 44  1  0  0  0  0
  9 45  1  0  0  0  0
 10 11  1  0  0  0  0
 11 12  1  0  0  0  0
 11 46  1  0  0  0  0
 11 47  1  0  0  0  0
 12 13  1  0  0  0  0
 12 48  1  0  0  0  0
 12 49  1  0  0  0  0
 13 14  1  0  0  0  0
 13 31  2  0  0  0  0
 14 15  2  0  0  0  0
 15 16  1  0  0  0  0
 16 17  1  0  0  0  0
 16 31  1  0  0  0  0
 17 18  1  0  0  0  0
 17 50  1  0  0  0  0
 17 51  1  0  0  0  0
 18 19  1  0  0  0  0
 18 52  1  0  0  0  0
 18 53  1  0  0  0  0
 19 20  1  0  0  0  0
 20 21  1  0  0  0  0
 20 54  1  0  0  0  0
 20 55  1  0  0  0  0
 21 22  1  0  0  0  0
 21 56  1  0  0  0  0
 21 57  1  0  0  0  0
 22 23  1  0  0  0  0
 23 24  1  0  0  0  0
 23 58  1  0  0  0  0
 23 59  1  0  0  0  0
 24 25  1  0  0  0  0
 24 60  1  0  0  0  0
 24 61  1  0  0  0  0
 25 26  1  0  0  0  0
 26 27  1  0  0  0  0
 26 62  1  0  0  0  0
 26 63  1  0  0  0  0
 27 28  1  0  0  0  0
 27 64  1  0  0  0  0
 27 65  1  0  0  0  0
 28 29  2  0  0  0  0
 28 30  1  0  0  0  0
 30 66  1  0  0  0  0
 30 67  1  0  0  0  0
 31 68  1  0  0  0  0
M  END
