5v9o_2.pdb
  MOE2019           3D

 48 47  0  0  0  0  0  0  0  0999 V2000
    7.4710   -4.2070    0.0000 N   0  0  0  0  0  0  0  0  0  0  0  0
    7.4710   -5.7070    0.0000 C   0  0  0  0  0  0  0  0  0  0  0  0
    8.7700   -6.4570    0.0000 C   0  0  0  0  0  0  0  0  0  0  0  0
    8.7700   -7.9570    0.0000 C   0  0  0  0  0  0  0  0  0  0  0  0
    7.4710   -8.7070    0.0000 O   0  0  0  0  0  0  0  0  0  0  0  0
   10.0690   -8.7070    0.0000 N   0  0  0  0  0  0  0  0  0  0  0  0
   11.3680   -7.9570    0.0000 C   0  0  0  0  0  0  0  0  0  0  0  0
   12.6670   -8.7070    0.0000 C   0  0  0  0  0  0  0  0  0  0  0  0
   13.9660   -7.9570    0.0000 O   0  0  0  0  0  0  0  0  0  0  0  0
   15.2650   -8.7070    0.0000 C   0  0  0  0  0  0  0  0  0  0  0  0
   16.5640   -7.9570    0.0000 C   0  0  0  0  0  0  0  0  0  0  0  0
   17.8630   -8.7070    0.0000 O   0  0  0  0  0  0  0  0  0  0  0  0
   19.1620   -7.9570    0.0000 C   0  0  0  0  0  0  0  0  0  0  0  0
   20.4610   -8.7070    0.0000 C   0  0  0  0  0  0  0  0  0  0  0  0
   21.7600   -7.9570    0.0000 O   0  0  0  0  0  0  0  0  0  0  0  0
   23.0590   -8.7070    0.0000 C   0  0  0  0  0  0  0  0  0  0  0  0
   24.3580   -7.9570    0.0000 C   0  0  0  0  0  0  0  0  0  0  0  0
   25.6570   -8.7070    0.0000 O   0  0  0  0  0  0  0  0  0  0  0  0
   26.9560   -7.9570    0.0000 C   0  0  0  0  0  0  0  0  0  0  0  0
   28.2550   -8.7070    0.0000 C   0  0  0  0  0  0  0  0  0  0  0  0
    8.3460   -3.7020    0.0000 H   0  0  0  0  0  0  0  0  0  0  0  0
    6.5960   -3.7020    0.0000 H   0  0  0  0  0  0  0  0  0  0  0  0
    6.9260   -6.0220   -0.8900 H   0  0  0  0  0  0  0  0  0  0  0  0
    6.9260   -6.0220    0.8900 H   0  0  0  0  0  0  0  0  0  0  0  0
    9.3150   -6.1420    0.8900 H   0  0  0  0  0  0  0  0  0  0  0  0
    9.3150   -6.1420   -0.8900 H   0  0  0  0  0  0  0  0  0  0  0  0
   10.0690   -9.7170    0.0000 H   0  0  0  0  0  0  0  0  0  0  0  0
   11.3680   -7.3280    0.8900 H   0  0  0  0  0  0  0  0  0  0  0  0
   11.3680   -7.3280   -0.8900 H   0  0  0  0  0  0  0  0  0  0  0  0
   12.6670   -9.3360   -0.8900 H   0  0  0  0  0  0  0  0  0  0  0  0
   12.6670   -9.3360    0.8900 H   0  0  0  0  0  0  0  0  0  0  0  0
   15.2650   -9.3360   -0.8900 H   0  0  0  0  0  0  0  0  0  0  0  0
   15.2650   -9.3360    0.8900 H   0  0  0  0  0  0  0  0  0  0  0  0
   16.5640   -7.3280    0.8900 H   0  0  0  0  0  0  0  0  0  0  0  0
   16.5640   -7.3280   -0.8900 H   0  0  0  0  0  0  0  0  0  0  0  0
   19.1620   -7.3280    0.8900 H   0  0  0  0  0  0  0  0  0  0  0  0
   19.1620   -7.3280   -0.8900 H   0  0  0  0  0  0  0  0  0  0  0  0
   20.4610   -9.3360   -0.8900 H   0  0  0  0  0  0  0  0  0  0  0  0
   20.4610   -9.3360    0.8900 H   0  0  0  0  0  0  0  0  0  0  0  0
   23.0590   -9.3360   -0.8900 H   0  0  0  0  0  0  0  0  0  0  0  0
   23.0590   -9.3360    0.8900 H   0  0  0  0  0  0  0  0  0  0  0  0
   24.3580   -7.3280    0.8900 H   0  0  0  0  0  0  0  0  0  0  0  0
   24.3580   -7.3280   -0.8900 H   0  0  0  0  0  0  0  0  0  0  0  0
   26.9560   -7.3280    0.8900 H   0  0  0  0  0  0  0  0  0  0  0  0
   26.9560   -7.3280   -0.8900 H   0  0  0  0  0  0  0  0  0  0  0  0
   28.2550   -9.3360   -0.8900 H   0  0  0  0  0  0  0  0  0  0  0  0
   29.1250   -8.0500    0.0000 H   0  0  0  0  0  0  0  0  0  0  0  0
   28.2550   -9.3360    0.8900 H   0  0  0  0  0  0  0  0  0  0  0  0
  1  2  1  0  0  0  0
  1 21  1  0  0  0  0
  1 22  1  0  0  0  0
  2  3  1  0  0  0  0
  2 23  1  0  0  0  0
  2 24  1  0  0  0  0
  3  4  1  0  0  0  0
  3 25  1  0  0  0  0
  3 26  1  0  0  0  0
  4  5  2  0  0  0  0
  4  6  1  0  0  0  0
  6  7  1  0  0  0  0
  6 27  1  0  0  0  0
  7  8  1  0  0  0  0
  7 28  1  0  0  0  0
  7 29  1  0  0  0  0
  8  9  1  0  0  0  0
  8 30  1  0  0  0  0
  8 31  1  0  0  0  0
  9 10  1  0  0  0  0
 10 11  1  0  0  0  0
 10 32  1  0  0  0  0
 10 33  1  0  0  0  0
 11 12  1  0  0  0  0
 11 34  1  0  0  0  0
 11 35  1  0  0  0  0
 12 13  1  0  0  0  0
 13 14  1  0  0  0  0
 13 36  1  0  0  0  0
 13 37  1  0  0  0  0
 14 15  1  0  0  0  0
 14 38  1  0  0  0  0
 14 39  1  0  0  0  0
 15 16  1  0  0  0  0
 16 17  1  0  0  0  0
 16 40  1  0  0  0  0
 16 41  1  0  0  0  0
 17 18  1  0  0  0  0
 17 42  1  0  0  0  0
 17 43  1  0  0  0  0
 18 19  1  0  0  0  0
 19 20  1  0  0  0  0
 19 44  1  0  0  0  0
 19 45  1  0  0  0  0
 20 46  1  0  0  0  0
 20 47  1  0  0  0  0
 20 48  1  0  0  0  0
M  END
