5vbp_4.pdb
  MOE2019           3D

 33 33  0  0  0  0  0  0  0  0999 V2000
   -1.0520    9.1630    0.0000 C   0  0  0  0  0  0  0  0  0  0  0  0
   -1.9880    8.6240    0.0000 H   0  0  0  0  0  0  0  0  0  0  0  0
    0.2460    8.4120    0.0000 C   0  0  0  0  0  0  0  0  0  0  0  0
    1.5460    9.1610    0.0000 C   0  0  0  0  0  0  0  0  0  0  0  0
    2.8440    8.4100    0.0000 O   0  0  0  0  0  0  0  0  0  0  0  0
    4.1440    9.1590    0.0000 C   0  0  0  0  0  0  0  0  0  0  0  0
    5.4420    8.4080    0.0000 C   0  0  0  0  0  0  0  0  0  0  0  0
    6.7420    9.1570    0.0000 O   0  0  0  0  0  0  0  0  0  0  0  0
    8.0400    8.4050    0.0000 C   0  0  0  0  0  0  0  0  0  0  0  0
    9.3400    9.1540    0.0000 C   0  0  0  0  0  0  0  0  0  0  0  0
   10.6390    8.4030    0.0000 O   0  0  0  0  0  0  0  0  0  0  0  0
   11.9380    9.1520    0.0000 C   0  0  0  0  0  0  0  0  0  0  0  0
   13.2370    8.4010    0.0000 C   0  0  0  0  0  0  0  0  0  0  0  0
    1.5470   10.6610    0.0000 C   0  0  0  0  0  0  0  0  0  0  0  0
    0.2490   11.4120    0.0000 C   0  0  0  0  0  0  0  0  0  0  0  0
   -1.0510   10.6630    0.0000 C   0  0  0  0  0  0  0  0  0  0  0  0
    0.2450    7.3320    0.0000 H   0  0  0  0  0  0  0  0  0  0  0  0
    4.1450    9.7880   -0.8900 H   0  0  0  0  0  0  0  0  0  0  0  0
    4.1450    9.7880    0.8900 H   0  0  0  0  0  0  0  0  0  0  0  0
    5.4410    7.7790   -0.8900 H   0  0  0  0  0  0  0  0  0  0  0  0
    5.4410    7.7790    0.8900 H   0  0  0  0  0  0  0  0  0  0  0  0
    8.0390    7.7760    0.8900 H   0  0  0  0  0  0  0  0  0  0  0  0
    8.0390    7.7760   -0.8900 H   0  0  0  0  0  0  0  0  0  0  0  0
    9.3400    9.7830    0.8900 H   0  0  0  0  0  0  0  0  0  0  0  0
    9.3400    9.7830   -0.8900 H   0  0  0  0  0  0  0  0  0  0  0  0
   11.9380    9.7810   -0.8900 H   0  0  0  0  0  0  0  0  0  0  0  0
   11.9380    9.7810    0.8900 H   0  0  0  0  0  0  0  0  0  0  0  0
   13.2370    7.7720   -0.8900 H   0  0  0  0  0  0  0  0  0  0  0  0
   13.2370    7.7720    0.8900 H   0  0  0  0  0  0  0  0  0  0  0  0
   14.1070    9.0580    0.0000 H   0  0  0  0  0  0  0  0  0  0  0  0
    2.4830   11.2000    0.0000 H   0  0  0  0  0  0  0  0  0  0  0  0
    0.2500   12.4920    0.0000 H   0  0  0  0  0  0  0  0  0  0  0  0
   -1.9860   11.2040    0.0000 H   0  0  0  0  0  0  0  0  0  0  0  0
  1  2  1  0  0  0  0
  1  3  1  0  0  0  0
  1 16  2  0  0  0  0
  3  4  2  0  0  0  0
  3 17  1  0  0  0  0
  4  5  1  0  0  0  0
  4 14  1  0  0  0  0
  5  6  1  0  0  0  0
  6  7  1  0  0  0  0
  6 18  1  0  0  0  0
  6 19  1  0  0  0  0
  7  8  1  0  0  0  0
  7 20  1  0  0  0  0
  7 21  1  0  0  0  0
  8  9  1  0  0  0  0
  9 10  1  0  0  0  0
  9 22  1  0  0  0  0
  9 23  1  0  0  0  0
 10 11  1  0  0  0  0
 10 24  1  0  0  0  0
 10 25  1  0  0  0  0
 11 12  1  0  0  0  0
 12 13  1  0  0  0  0
 12 26  1  0  0  0  0
 12 27  1  0  0  0  0
 13 28  1  0  0  0  0
 13 29  1  0  0  0  0
 13 30  1  0  0  0  0
 14 15  2  0  0  0  0
 14 31  1  0  0  0  0
 15 16  1  0  0  0  0
 15 32  1  0  0  0  0
 16 33  1  0  0  0  0
M  END
