5vbp_21.pdb
  MOE2019           3D

  3  2  0  0  0  0  0  0  0  0999 V2000
    7.4140    1.9460    0.0000 O   0  0  0  0  0  0  0  0  0  0  0  0
    7.4330    2.5050    0.7810 H   0  0  0  0  0  0  0  0  0  0  0  0
    8.3120    1.9660   -0.3400 H   0  0  0  0  0  0  0  0  0  0  0  0
  1  2  1  0  0  0  0
  1  3  1  0  0  0  0
M  END
