5wn8_1.pdb
  MOE2019           3D

 23 22  0  0  0  0  0  0  0  0999 V2000
   19.9190   -0.4110    0.0000 C   0  0  0  0  0  0  0  0  0  0  0  0
   18.6230   -1.1680    0.0000 C   0  0  0  0  0  0  0  0  0  0  0  0
   17.3210   -0.4240    0.0000 O   0  0  0  0  0  0  0  0  0  0  0  0
   16.0250   -1.1810    0.0000 C   0  0  0  0  0  0  0  0  0  0  0  0
   14.7220   -0.4370    0.0000 C   0  0  0  0  0  0  0  0  0  0  0  0
   13.4270   -1.1940    0.0000 O   0  0  0  0  0  0  0  0  0  0  0  0
   12.1240   -0.4500    0.0000 C   0  0  0  0  0  0  0  0  0  0  0  0
   10.8290   -1.2070    0.0000 C   0  0  0  0  0  0  0  0  0  0  0  0
   10.8370   -2.7070    0.0000 O   0  0  0  0  0  0  0  0  0  0  0  0
    9.5260   -0.4630    0.0000 N   0  0  0  0  0  0  0  0  0  0  0  0
   19.9160    0.2180   -0.8900 H   0  0  0  0  0  0  0  0  0  0  0  0
   19.9160    0.2180    0.8900 H   0  0  0  0  0  0  0  0  0  0  0  0
   20.7920   -1.0640    0.0000 H   0  0  0  0  0  0  0  0  0  0  0  0
   18.6260   -1.7970    0.8900 H   0  0  0  0  0  0  0  0  0  0  0  0
   18.6260   -1.7970   -0.8900 H   0  0  0  0  0  0  0  0  0  0  0  0
   16.0280   -1.8100    0.8900 H   0  0  0  0  0  0  0  0  0  0  0  0
   16.0280   -1.8100   -0.8900 H   0  0  0  0  0  0  0  0  0  0  0  0
   14.7190    0.1920   -0.8900 H   0  0  0  0  0  0  0  0  0  0  0  0
   14.7190    0.1920    0.8900 H   0  0  0  0  0  0  0  0  0  0  0  0
   12.1210    0.1790   -0.8900 H   0  0  0  0  0  0  0  0  0  0  0  0
   12.1210    0.1790    0.8900 H   0  0  0  0  0  0  0  0  0  0  0  0
    9.5210    0.5470    0.0000 H   0  0  0  0  0  0  0  0  0  0  0  0
    8.6540   -0.9720    0.0000 H   0  0  0  0  0  0  0  0  0  0  0  0
  1  2  1  0  0  0  0
  1 11  1  0  0  0  0
  1 12  1  0  0  0  0
  1 13  1  0  0  0  0
  2  3  1  0  0  0  0
  2 14  1  0  0  0  0
  2 15  1  0  0  0  0
  3  4  1  0  0  0  0
  4  5  1  0  0  0  0
  4 16  1  0  0  0  0
  4 17  1  0  0  0  0
  5  6  1  0  0  0  0
  5 18  1  0  0  0  0
  5 19  1  0  0  0  0
  6  7  1  0  0  0  0
  7  8  1  0  0  0  0
  7 20  1  0  0  0  0
  7 21  1  0  0  0  0
  8  9  2  0  0  0  0
  8 10  1  0  0  0  0
 10 22  1  0  0  0  0
 10 23  1  0  0  0  0
M  END
