5wuk_3.pdb
  MOE2019           3D

 11 10  0  0  0  0  0  0  0  0999 V2000
    5.1800    1.0820    0.0000 C   0  0  0  0  0  0  0  0  0  0  0  0
    6.4790    0.3320    0.0000 C   0  0  0  0  0  0  0  0  0  0  0  0
    7.7780    1.0820    0.0000 C   0  0  0  0  0  0  0  0  0  0  0  0
    5.1800    1.7110   -0.8900 H   0  0  0  0  0  0  0  0  0  0  0  0
    5.1800    1.7110    0.8900 H   0  0  0  0  0  0  0  0  0  0  0  0
    4.3100    0.4250    0.0000 H   0  0  0  0  0  0  0  0  0  0  0  0
    6.4790   -0.2970   -0.8900 H   0  0  0  0  0  0  0  0  0  0  0  0
    6.4790   -0.2970    0.8900 H   0  0  0  0  0  0  0  0  0  0  0  0
    7.7780    1.7110    0.8900 H   0  0  0  0  0  0  0  0  0  0  0  0
    8.6480    0.4250    0.0000 H   0  0  0  0  0  0  0  0  0  0  0  0
    7.7780    1.7110   -0.8900 H   0  0  0  0  0  0  0  0  0  0  0  0
  1  2  1  0  0  0  0
  1  4  1  0  0  0  0
  1  5  1  0  0  0  0
  1  6  1  0  0  0  0
  2  3  1  0  0  0  0
  2  7  1  0  0  0  0
  2  8  1  0  0  0  0
  3  9  1  0  0  0  0
  3 10  1  0  0  0  0
  3 11  1  0  0  0  0
M  END
