6haz_2.pdb
  MOE2019           3D

 21 21  0  0  0  0  0  0  0  0999 V2000
   -0.6700   -9.9760    0.0000 C   0  0  0  0  0  0  0  0  0  0  0  0
    0.0740  -11.2790    0.0000 C   0  0  0  0  0  0  0  0  0  0  0  0
    1.5740  -11.2850    0.0000 C   0  0  0  0  0  0  0  0  0  0  0  0
    2.3300   -9.9900    0.0000 C   0  0  0  0  0  0  0  0  0  0  0  0
    3.8300   -9.9960    0.0000 C   0  0  0  0  0  0  0  0  0  0  0  0
    4.5740  -11.2990    0.0000 C   0  0  0  0  0  0  0  0  0  0  0  0
    6.0740  -11.3050    0.0000 C   0  0  0  0  0  0  0  0  0  0  0  0
    3.8180  -12.5940    0.0000 C   0  0  0  0  0  0  0  0  0  0  0  0
    2.3180  -12.5880    0.0000 C   0  0  0  0  0  0  0  0  0  0  0  0
   -0.3530   -9.4320   -0.8900 H   0  0  0  0  0  0  0  0  0  0  0  0
   -0.3530   -9.4320    0.8900 H   0  0  0  0  0  0  0  0  0  0  0  0
   -1.7520  -10.1060    0.0000 H   0  0  0  0  0  0  0  0  0  0  0  0
   -0.2430  -11.8230    0.8900 H   0  0  0  0  0  0  0  0  0  0  0  0
   -0.2430  -11.8230   -0.8900 H   0  0  0  0  0  0  0  0  0  0  0  0
    1.7940   -9.0520    0.0000 H   0  0  0  0  0  0  0  0  0  0  0  0
    4.3740   -9.0630    0.0000 H   0  0  0  0  0  0  0  0  0  0  0  0
    6.3910  -10.7610    0.8900 H   0  0  0  0  0  0  0  0  0  0  0  0
    6.3910  -10.7610   -0.8900 H   0  0  0  0  0  0  0  0  0  0  0  0
    6.4940  -12.3110    0.0000 H   0  0  0  0  0  0  0  0  0  0  0  0
    4.3540  -13.5320    0.0000 H   0  0  0  0  0  0  0  0  0  0  0  0
    1.7740  -13.5210    0.0000 H   0  0  0  0  0  0  0  0  0  0  0  0
  1  2  1  0  0  0  0
  1 10  1  0  0  0  0
  1 11  1  0  0  0  0
  1 12  1  0  0  0  0
  2  3  1  0  0  0  0
  2 13  1  0  0  0  0
  2 14  1  0  0  0  0
  3  4  1  0  0  0  0
  3  9  2  0  0  0  0
  4  5  2  0  0  0  0
  4 15  1  0  0  0  0
  5  6  1  0  0  0  0
  5 16  1  0  0  0  0
  6  7  1  0  0  0  0
  6  8  2  0  0  0  0
  7 17  1  0  0  0  0
  7 18  1  0  0  0  0
  7 19  1  0  0  0  0
  8  9  1  0  0  0  0
  8 20  1  0  0  0  0
  9 21  1  0  0  0  0
M  END
