6iq5_1.pdb
  MOE2019           3D

 15 15  0  0  0  0  0  0  0  0999 V2000
   10.7450   -4.4300    0.0000 O   0  0  0  0  0  0  0  0  0  0  0  0
   10.7200   -3.8710    0.7800 H   0  0  0  0  0  0  0  0  0  0  0  0
    9.5000   -5.2650    0.0000 C   0  0  0  0  0  0  0  0  0  0  0  0
    8.1530   -4.6040    0.0000 C   0  0  0  0  0  0  0  0  0  0  0  0
    6.9070   -5.4400    0.0000 N   0  0  0  0  0  0  0  0  0  0  0  0
    6.8510   -6.9380    0.0000 N   0  0  0  0  0  0  0  0  0  0  0  0
    5.4080   -7.3480    0.0000 N   0  0  0  0  0  0  0  0  0  0  0  0
    4.5720   -6.1020    0.0000 C   0  0  0  0  0  0  0  0  0  0  0  0
    3.4930   -6.0610    0.0000 H   0  0  0  0  0  0  0  0  0  0  0  0
    5.4990   -4.9230    0.0000 C   0  0  0  0  0  0  0  0  0  0  0  0
    9.5420   -5.8930    0.8900 H   0  0  0  0  0  0  0  0  0  0  0  0
    9.5420   -5.8930   -0.8900 H   0  0  0  0  0  0  0  0  0  0  0  0
    8.1110   -3.9760   -0.8900 H   0  0  0  0  0  0  0  0  0  0  0  0
    8.1110   -3.9760    0.8900 H   0  0  0  0  0  0  0  0  0  0  0  0
    5.2040   -3.8840    0.0000 H   0  0  0  0  0  0  0  0  0  0  0  0
  1  2  1  0  0  0  0
  1  3  1  0  0  0  0
  3  4  1  0  0  0  0
  3 11  1  0  0  0  0
  3 12  1  0  0  0  0
  4  5  1  0  0  0  0
  4 13  1  0  0  0  0
  4 14  1  0  0  0  0
  5  6  1  0  0  0  0
  5 10  1  0  0  0  0
  6  7  2  0  0  0  0
  7  8  1  0  0  0  0
  8  9  1  0  0  0  0
  8 10  2  0  0  0  0
 10 15  1  0  0  0  0
M  END
