6iq5_4.pdb
  MOE2019           3D

 33 33  0  0  0  0  0  0  0  0999 V2000
   18.7650   -6.1040    0.0000 O   0  0  0  0  0  0  0  0  0  0  0  0
   18.7440   -5.5450    0.7800 H   0  0  0  0  0  0  0  0  0  0  0  0
   17.5130   -6.9300    0.0000 C   0  0  0  0  0  0  0  0  0  0  0  0
   16.1710   -6.2590    0.0000 C   0  0  0  0  0  0  0  0  0  0  0  0
   14.9190   -7.0850    0.0000 C   0  0  0  0  0  0  0  0  0  0  0  0
   13.5780   -6.4130    0.0000 C   0  0  0  0  0  0  0  0  0  0  0  0
   12.3260   -7.2390    0.0000 C   0  0  0  0  0  0  0  0  0  0  0  0
   10.9840   -6.5680    0.0000 C   0  0  0  0  0  0  0  0  0  0  0  0
    9.7320   -7.3940    0.0000 C   0  0  0  0  0  0  0  0  0  0  0  0
    8.3910   -6.7220    0.0000 C   0  0  0  0  0  0  0  0  0  0  0  0
    7.1390   -7.5480    0.0000 N   0  0  0  0  0  0  0  0  0  0  0  0
    7.0710   -9.0470    0.0000 N   0  0  0  0  0  0  0  0  0  0  0  0
    5.6250   -9.4450    0.0000 N   0  0  0  0  0  0  0  0  0  0  0  0
    4.7990   -8.1930    0.0000 C   0  0  0  0  0  0  0  0  0  0  0  0
    3.7200   -8.1440    0.0000 H   0  0  0  0  0  0  0  0  0  0  0  0
    5.7350   -7.0210    0.0000 C   0  0  0  0  0  0  0  0  0  0  0  0
   17.5510   -7.5580    0.8900 H   0  0  0  0  0  0  0  0  0  0  0  0
   17.5510   -7.5580   -0.8900 H   0  0  0  0  0  0  0  0  0  0  0  0
   16.1330   -5.6310   -0.8900 H   0  0  0  0  0  0  0  0  0  0  0  0
   16.1330   -5.6310    0.8900 H   0  0  0  0  0  0  0  0  0  0  0  0
   14.9560   -7.7130    0.8900 H   0  0  0  0  0  0  0  0  0  0  0  0
   14.9560   -7.7130   -0.8900 H   0  0  0  0  0  0  0  0  0  0  0  0
   13.5410   -5.7850   -0.8900 H   0  0  0  0  0  0  0  0  0  0  0  0
   13.5410   -5.7850    0.8900 H   0  0  0  0  0  0  0  0  0  0  0  0
   12.3640   -7.8670    0.8900 H   0  0  0  0  0  0  0  0  0  0  0  0
   12.3640   -7.8670   -0.8900 H   0  0  0  0  0  0  0  0  0  0  0  0
   10.9460   -5.9400   -0.8900 H   0  0  0  0  0  0  0  0  0  0  0  0
   10.9460   -5.9400    0.8900 H   0  0  0  0  0  0  0  0  0  0  0  0
    9.7690   -8.0220    0.8900 H   0  0  0  0  0  0  0  0  0  0  0  0
    9.7690   -8.0220   -0.8900 H   0  0  0  0  0  0  0  0  0  0  0  0
    8.3540   -6.0940   -0.8900 H   0  0  0  0  0  0  0  0  0  0  0  0
    8.3540   -6.0940    0.8900 H   0  0  0  0  0  0  0  0  0  0  0  0
    5.4480   -5.9800    0.0000 H   0  0  0  0  0  0  0  0  0  0  0  0
  1  2  1  0  0  0  0
  1  3  1  0  0  0  0
  3  4  1  0  0  0  0
  3 17  1  0  0  0  0
  3 18  1  0  0  0  0
  4  5  1  0  0  0  0
  4 19  1  0  0  0  0
  4 20  1  0  0  0  0
  5  6  1  0  0  0  0
  5 21  1  0  0  0  0
  5 22  1  0  0  0  0
  6  7  1  0  0  0  0
  6 23  1  0  0  0  0
  6 24  1  0  0  0  0
  7  8  1  0  0  0  0
  7 25  1  0  0  0  0
  7 26  1  0  0  0  0
  8  9  1  0  0  0  0
  8 27  1  0  0  0  0
  8 28  1  0  0  0  0
  9 10  1  0  0  0  0
  9 29  1  0  0  0  0
  9 30  1  0  0  0  0
 10 11  1  0  0  0  0
 10 31  1  0  0  0  0
 10 32  1  0  0  0  0
 11 12  1  0  0  0  0
 11 16  1  0  0  0  0
 12 13  2  0  0  0  0
 13 14  1  0  0  0  0
 14 15  1  0  0  0  0
 14 16  2  0  0  0  0
 16 33  1  0  0  0  0
M  END
