6j3o_2.pdb
  MOE2019           3D

 36 36  0  0  0  0  0  0  0  0999 V2000
   -1.3730   14.3720    0.0000 C   0  0  0  0  0  0  0  0  0  0  0  0
   -2.1230   13.0730    0.0000 C   0  0  0  0  0  0  0  0  0  0  0  0
   -3.6230   13.0730    0.0000 C   0  0  0  0  0  0  0  0  0  0  0  0
   -4.3730   11.7740    0.0000 N   0  0  0  0  0  0  0  0  0  0  0  0
   -3.6230   10.4750    0.0000 C   0  0  0  0  0  0  0  0  0  0  0  0
   -5.8730   11.7740    0.0000 C   0  0  0  0  0  0  0  0  0  0  0  0
   -6.6230   13.0730    0.0000 C   0  0  0  0  0  0  0  0  0  0  0  0
   -8.1230   13.0730    0.0000 C   0  0  0  0  0  0  0  0  0  0  0  0
   -8.8730   11.7740    0.0000 C   0  0  0  0  0  0  0  0  0  0  0  0
  -10.3730   11.7740    0.0000 C   0  0  0  0  0  0  0  0  0  0  0  0
  -11.1230   13.0730    0.0000 C   0  0  0  0  0  0  0  0  0  0  0  0
  -12.6230   13.0730    0.0000 C   0  0  0  0  0  0  0  0  0  0  0  0
  -13.3730   14.3720    0.0000 O   0  0  0  0  0  0  0  0  0  0  0  0
  -14.3110   14.1660    0.0000 H   0  0  0  0  0  0  0  0  0  0  0  0
   -8.1230   10.4750    0.0000 C   0  0  0  0  0  0  0  0  0  0  0  0
   -6.6230   10.4750    0.0000 C   0  0  0  0  0  0  0  0  0  0  0  0
   -1.6880   14.9170    0.8900 H   0  0  0  0  0  0  0  0  0  0  0  0
   -1.6880   14.9170   -0.8900 H   0  0  0  0  0  0  0  0  0  0  0  0
   -0.2910   14.2380    0.0000 H   0  0  0  0  0  0  0  0  0  0  0  0
   -1.8080   12.5280   -0.8900 H   0  0  0  0  0  0  0  0  0  0  0  0
   -1.8080   12.5280    0.8900 H   0  0  0  0  0  0  0  0  0  0  0  0
   -3.9380   13.6180   -0.8900 H   0  0  0  0  0  0  0  0  0  0  0  0
   -3.9380   13.6180    0.8900 H   0  0  0  0  0  0  0  0  0  0  0  0
   -2.5510   10.6740    0.0000 H   0  0  0  0  0  0  0  0  0  0  0  0
   -3.8860    9.9030   -0.8900 H   0  0  0  0  0  0  0  0  0  0  0  0
   -3.8860    9.9030    0.8900 H   0  0  0  0  0  0  0  0  0  0  0  0
   -6.0830   14.0080    0.0000 H   0  0  0  0  0  0  0  0  0  0  0  0
   -8.6630   14.0080    0.0000 H   0  0  0  0  0  0  0  0  0  0  0  0
  -10.6880   11.2290   -0.8900 H   0  0  0  0  0  0  0  0  0  0  0  0
  -10.6880   11.2290    0.8900 H   0  0  0  0  0  0  0  0  0  0  0  0
  -10.8080   13.6180   -0.8900 H   0  0  0  0  0  0  0  0  0  0  0  0
  -10.8080   13.6180    0.8900 H   0  0  0  0  0  0  0  0  0  0  0  0
  -12.9380   12.5280    0.8900 H   0  0  0  0  0  0  0  0  0  0  0  0
  -12.9380   12.5280   -0.8900 H   0  0  0  0  0  0  0  0  0  0  0  0
   -8.6630    9.5400    0.0000 H   0  0  0  0  0  0  0  0  0  0  0  0
   -6.0830    9.5400    0.0000 H   0  0  0  0  0  0  0  0  0  0  0  0
  1  2  1  0  0  0  0
  1 17  1  0  0  0  0
  1 18  1  0  0  0  0
  1 19  1  0  0  0  0
  2  3  1  0  0  0  0
  2 20  1  0  0  0  0
  2 21  1  0  0  0  0
  3  4  1  0  0  0  0
  3 22  1  0  0  0  0
  3 23  1  0  0  0  0
  4  5  1  0  0  0  0
  4  6  1  0  0  0  0
  5 24  1  0  0  0  0
  5 25  1  0  0  0  0
  5 26  1  0  0  0  0
  6  7  1  0  0  0  0
  6 16  2  0  0  0  0
  7  8  2  0  0  0  0
  7 27  1  0  0  0  0
  8  9  1  0  0  0  0
  8 28  1  0  0  0  0
  9 10  1  0  0  0  0
  9 15  2  0  0  0  0
 10 11  1  0  0  0  0
 10 29  1  0  0  0  0
 10 30  1  0  0  0  0
 11 12  1  0  0  0  0
 11 31  1  0  0  0  0
 11 32  1  0  0  0  0
 12 13  1  0  0  0  0
 12 33  1  0  0  0  0
 12 34  1  0  0  0  0
 13 14  1  0  0  0  0
 15 16  1  0  0  0  0
 15 35  1  0  0  0  0
 16 36  1  0  0  0  0
M  END
