6mx8_6.pdb
  MOE2019           3D

 20 19  0  0  0  0  0  0  0  0999 V2000
   17.4250    7.0300    0.0000 C   0  0  0  0  0  0  0  0  0  0  0  0
   16.1260    6.2800    0.0000 C   0  0  0  0  0  0  0  0  0  0  0  0
   14.8270    7.0300    0.0000 C   0  0  0  0  0  0  0  0  0  0  0  0
   13.5280    6.2800    0.0000 C   0  0  0  0  0  0  0  0  0  0  0  0
   12.2290    7.0300    0.0000 C   0  0  0  0  0  0  0  0  0  0  0  0
   10.9300    6.2800    0.0000 C   0  0  0  0  0  0  0  0  0  0  0  0
   17.4250    7.6590    0.8900 H   0  0  0  0  0  0  0  0  0  0  0  0
   18.2950    6.3730    0.0000 H   0  0  0  0  0  0  0  0  0  0  0  0
   17.4250    7.6590   -0.8900 H   0  0  0  0  0  0  0  0  0  0  0  0
   16.1260    5.6510   -0.8900 H   0  0  0  0  0  0  0  0  0  0  0  0
   16.1260    5.6510    0.8900 H   0  0  0  0  0  0  0  0  0  0  0  0
   14.8270    7.6590    0.8900 H   0  0  0  0  0  0  0  0  0  0  0  0
   14.8270    7.6590   -0.8900 H   0  0  0  0  0  0  0  0  0  0  0  0
   13.5280    5.6510    0.8900 H   0  0  0  0  0  0  0  0  0  0  0  0
   13.5280    5.6510   -0.8900 H   0  0  0  0  0  0  0  0  0  0  0  0
   12.2290    7.6590   -0.8900 H   0  0  0  0  0  0  0  0  0  0  0  0
   12.2290    7.6590    0.8900 H   0  0  0  0  0  0  0  0  0  0  0  0
   10.9300    5.6510    0.8900 H   0  0  0  0  0  0  0  0  0  0  0  0
   10.9300    5.6510   -0.8900 H   0  0  0  0  0  0  0  0  0  0  0  0
   10.0600    6.9370    0.0000 H   0  0  0  0  0  0  0  0  0  0  0  0
  1  2  1  0  0  0  0
  1  7  1  0  0  0  0
  1  8  1  0  0  0  0
  1  9  1  0  0  0  0
  2  3  1  0  0  0  0
  2 10  1  0  0  0  0
  2 11  1  0  0  0  0
  3  4  1  0  0  0  0
  3 12  1  0  0  0  0
  3 13  1  0  0  0  0
  4  5  1  0  0  0  0
  4 14  1  0  0  0  0
  4 15  1  0  0  0  0
  5  6  1  0  0  0  0
  5 16  1  0  0  0  0
  5 17  1  0  0  0  0
  6 18  1  0  0  0  0
  6 19  1  0  0  0  0
  6 20  1  0  0  0  0
M  END
