6nuq_23.pdb
  MOE2019           3D

 16 15  0  0  0  0  0  0  0  0999 V2000
   -7.6960    0.5560    0.0000 C   0  0  0  0  0  0  0  0  0  0  0  0
   -6.4460   -0.2730    0.0000 C   0  0  0  0  0  0  0  0  0  0  0  0
   -5.1030    0.3940    0.0000 C   0  0  0  0  0  0  0  0  0  0  0  0
   -5.0100    1.8910    0.0000 C   0  0  0  0  0  0  0  0  0  0  0  0
   -3.6670    2.5590    0.0000 C   0  0  0  0  0  0  0  0  0  0  0  0
   -2.3240    3.2270    0.0000 C   0  0  0  0  0  0  0  0  0  0  0  0
   -1.3700    3.7010    0.0000 H   0  0  0  0  0  0  0  0  0  0  0  0
   -7.6570    1.1840   -0.8900 H   0  0  0  0  0  0  0  0  0  0  0  0
   -7.6570    1.1840    0.8900 H   0  0  0  0  0  0  0  0  0  0  0  0
   -8.6050   -0.0460    0.0000 H   0  0  0  0  0  0  0  0  0  0  0  0
   -6.4850   -0.9010    0.8900 H   0  0  0  0  0  0  0  0  0  0  0  0
   -6.4850   -0.9010   -0.8900 H   0  0  0  0  0  0  0  0  0  0  0  0
   -4.5790    0.0460   -0.8900 H   0  0  0  0  0  0  0  0  0  0  0  0
   -4.5790    0.0460    0.8900 H   0  0  0  0  0  0  0  0  0  0  0  0
   -5.5340    2.2390    0.8900 H   0  0  0  0  0  0  0  0  0  0  0  0
   -5.5340    2.2390   -0.8900 H   0  0  0  0  0  0  0  0  0  0  0  0
  1  2  1  0  0  0  0
  1  8  1  0  0  0  0
  1  9  1  0  0  0  0
  1 10  1  0  0  0  0
  2  3  1  0  0  0  0
  2 11  1  0  0  0  0
  2 12  1  0  0  0  0
  3  4  1  0  0  0  0
  3 13  1  0  0  0  0
  3 14  1  0  0  0  0
  4  5  1  0  0  0  0
  4 15  1  0  0  0  0
  4 16  1  0  0  0  0
  5  6  3  0  0  0  0
  6  7  1  0  0  0  0
M  END
