6nuq_20.pdb
  MOE2019           3D

 16 15  0  0  0  0  0  0  0  0999 V2000
   -3.5050  -11.5220    0.0000 C   0  0  0  0  0  0  0  0  0  0  0  0
   -2.2150  -12.2880    0.0000 C   0  0  0  0  0  0  0  0  0  0  0  0
   -0.9070  -11.5530    0.0000 C   0  0  0  0  0  0  0  0  0  0  0  0
    0.3830  -12.3190    0.0000 C   0  0  0  0  0  0  0  0  0  0  0  0
    1.6910  -11.5850    0.0000 C   0  0  0  0  0  0  0  0  0  0  0  0
    2.9990  -10.8500    0.0000 C   0  0  0  0  0  0  0  0  0  0  0  0
    3.9270  -10.3280    0.0000 H   0  0  0  0  0  0  0  0  0  0  0  0
   -3.4970  -10.8930   -0.8900 H   0  0  0  0  0  0  0  0  0  0  0  0
   -3.4970  -10.8930    0.8900 H   0  0  0  0  0  0  0  0  0  0  0  0
   -4.3830  -12.1680    0.0000 H   0  0  0  0  0  0  0  0  0  0  0  0
   -2.2230  -12.9170    0.8900 H   0  0  0  0  0  0  0  0  0  0  0  0
   -2.2230  -12.9170   -0.8900 H   0  0  0  0  0  0  0  0  0  0  0  0
   -0.8990  -10.9240    0.8900 H   0  0  0  0  0  0  0  0  0  0  0  0
   -0.8990  -10.9240   -0.8900 H   0  0  0  0  0  0  0  0  0  0  0  0
    0.3750  -12.9480   -0.8900 H   0  0  0  0  0  0  0  0  0  0  0  0
    0.3750  -12.9480    0.8900 H   0  0  0  0  0  0  0  0  0  0  0  0
  1  2  1  0  0  0  0
  1  8  1  0  0  0  0
  1  9  1  0  0  0  0
  1 10  1  0  0  0  0
  2  3  1  0  0  0  0
  2 11  1  0  0  0  0
  2 12  1  0  0  0  0
  3  4  1  0  0  0  0
  3 13  1  0  0  0  0
  3 14  1  0  0  0  0
  4  5  1  0  0  0  0
  4 15  1  0  0  0  0
  4 16  1  0  0  0  0
  5  6  3  0  0  0  0
  6  7  1  0  0  0  0
M  END
