6psj_1.pdb
  MOE2019           3D

 20 19  0  0  0  0  0  0  0  0999 V2000
    4.3580   -3.6120    0.0000 C   0  0  0  0  0  0  0  0  0  0  0  0
    3.0590   -4.3620    0.0000 C   0  0  0  0  0  0  0  0  0  0  0  0
    1.7600   -3.6120    0.0000 C   0  0  0  0  0  0  0  0  0  0  0  0
    0.4610   -4.3620    0.0000 C   0  0  0  0  0  0  0  0  0  0  0  0
   -0.8380   -3.6120    0.0000 C   0  0  0  0  0  0  0  0  0  0  0  0
   -2.1370   -4.3620    0.0000 C   0  0  0  0  0  0  0  0  0  0  0  0
    4.3580   -2.9830    0.8900 H   0  0  0  0  0  0  0  0  0  0  0  0
    4.3580   -2.9830   -0.8900 H   0  0  0  0  0  0  0  0  0  0  0  0
    5.2280   -4.2690    0.0000 H   0  0  0  0  0  0  0  0  0  0  0  0
    3.0590   -4.9910   -0.8900 H   0  0  0  0  0  0  0  0  0  0  0  0
    3.0590   -4.9910    0.8900 H   0  0  0  0  0  0  0  0  0  0  0  0
    1.7600   -2.9830   -0.8900 H   0  0  0  0  0  0  0  0  0  0  0  0
    1.7600   -2.9830    0.8900 H   0  0  0  0  0  0  0  0  0  0  0  0
    0.4610   -4.9910    0.8900 H   0  0  0  0  0  0  0  0  0  0  0  0
    0.4610   -4.9910   -0.8900 H   0  0  0  0  0  0  0  0  0  0  0  0
   -0.8380   -2.9830   -0.8900 H   0  0  0  0  0  0  0  0  0  0  0  0
   -0.8380   -2.9830    0.8900 H   0  0  0  0  0  0  0  0  0  0  0  0
   -2.1370   -4.9910    0.8900 H   0  0  0  0  0  0  0  0  0  0  0  0
   -2.1370   -4.9910   -0.8900 H   0  0  0  0  0  0  0  0  0  0  0  0
   -3.0070   -3.7050    0.0000 H   0  0  0  0  0  0  0  0  0  0  0  0
  1  2  1  0  0  0  0
  1  7  1  0  0  0  0
  1  8  1  0  0  0  0
  1  9  1  0  0  0  0
  2  3  1  0  0  0  0
  2 10  1  0  0  0  0
  2 11  1  0  0  0  0
  3  4  1  0  0  0  0
  3 12  1  0  0  0  0
  3 13  1  0  0  0  0
  4  5  1  0  0  0  0
  4 14  1  0  0  0  0
  4 15  1  0  0  0  0
  5  6  1  0  0  0  0
  5 16  1  0  0  0  0
  5 17  1  0  0  0  0
  6 18  1  0  0  0  0
  6 19  1  0  0  0  0
  6 20  1  0  0  0  0
M  END
