6psj_3.pdb
  MOE2019           3D

 20 19  0  0  0  0  0  0  0  0999 V2000
    1.3180    7.6880    0.0000 C   0  0  0  0  0  0  0  0  0  0  0  0
    2.6160    6.9350    0.0000 C   0  0  0  0  0  0  0  0  0  0  0  0
    3.9160    7.6820    0.0000 C   0  0  0  0  0  0  0  0  0  0  0  0
    5.2140    6.9300    0.0000 C   0  0  0  0  0  0  0  0  0  0  0  0
    6.5140    7.6770    0.0000 C   0  0  0  0  0  0  0  0  0  0  0  0
    7.8120    6.9240    0.0000 C   0  0  0  0  0  0  0  0  0  0  0  0
    1.3190    8.3170   -0.8900 H   0  0  0  0  0  0  0  0  0  0  0  0
    1.3190    8.3170    0.8900 H   0  0  0  0  0  0  0  0  0  0  0  0
    0.4470    7.0320    0.0000 H   0  0  0  0  0  0  0  0  0  0  0  0
    2.6150    6.3060    0.8900 H   0  0  0  0  0  0  0  0  0  0  0  0
    2.6150    6.3060   -0.8900 H   0  0  0  0  0  0  0  0  0  0  0  0
    3.9170    8.3110    0.8900 H   0  0  0  0  0  0  0  0  0  0  0  0
    3.9170    8.3110   -0.8900 H   0  0  0  0  0  0  0  0  0  0  0  0
    5.2130    6.3010   -0.8900 H   0  0  0  0  0  0  0  0  0  0  0  0
    5.2130    6.3010    0.8900 H   0  0  0  0  0  0  0  0  0  0  0  0
    6.5150    8.3060    0.8900 H   0  0  0  0  0  0  0  0  0  0  0  0
    6.5150    8.3060   -0.8900 H   0  0  0  0  0  0  0  0  0  0  0  0
    8.3580    7.2380    0.8900 H   0  0  0  0  0  0  0  0  0  0  0  0
    8.3580    7.2380   -0.8900 H   0  0  0  0  0  0  0  0  0  0  0  0
    7.6750    5.8430    0.0000 H   0  0  0  0  0  0  0  0  0  0  0  0
  1  2  1  0  0  0  0
  1  7  1  0  0  0  0
  1  8  1  0  0  0  0
  1  9  1  0  0  0  0
  2  3  1  0  0  0  0
  2 10  1  0  0  0  0
  2 11  1  0  0  0  0
  3  4  1  0  0  0  0
  3 12  1  0  0  0  0
  3 13  1  0  0  0  0
  4  5  1  0  0  0  0
  4 14  1  0  0  0  0
  4 15  1  0  0  0  0
  5  6  1  0  0  0  0
  5 16  1  0  0  0  0
  5 17  1  0  0  0  0
  6 18  1  0  0  0  0
  6 19  1  0  0  0  0
  6 20  1  0  0  0  0
M  END
