6vs3_1.pdb
  MOE2019           3D

 27 26  0  0  0  0  0  0  0  0999 V2000
    4.2990    9.4210    0.0000 C   0  0  0  0  0  0  0  0  0  0  0  0
    5.0490   10.7200    0.0000 C   0  0  0  0  0  0  0  0  0  0  0  0
    6.5490   10.7200    0.0000 C   0  0  0  0  0  0  0  0  0  0  0  0
    7.2990   12.0190    0.0000 C   0  0  0  0  0  0  0  0  0  0  0  0
    8.7990   12.0190    0.0000 C   0  0  0  0  0  0  0  0  0  0  0  0
    9.5490   13.3180    0.0000 C   0  0  0  0  0  0  0  0  0  0  0  0
   11.0490   13.3180    0.0000 C   0  0  0  0  0  0  0  0  0  0  0  0
   11.7990   14.6170    0.0000 C   0  0  0  0  0  0  0  0  0  0  0  0
   11.0490   15.9160    0.0000 O   0  0  0  0  0  0  0  0  0  0  0  0
   13.2990   14.6170    0.0000 N   0  0  0  0  0  0  0  0  0  0  0  0
    4.6140    8.8760   -0.8900 H   0  0  0  0  0  0  0  0  0  0  0  0
    4.6140    8.8760    0.8900 H   0  0  0  0  0  0  0  0  0  0  0  0
    3.2170    9.5550    0.0000 H   0  0  0  0  0  0  0  0  0  0  0  0
    4.7340   11.2650    0.8900 H   0  0  0  0  0  0  0  0  0  0  0  0
    4.7340   11.2650   -0.8900 H   0  0  0  0  0  0  0  0  0  0  0  0
    6.8640   10.1750   -0.8900 H   0  0  0  0  0  0  0  0  0  0  0  0
    6.8640   10.1750    0.8900 H   0  0  0  0  0  0  0  0  0  0  0  0
    6.9840   12.5640    0.8900 H   0  0  0  0  0  0  0  0  0  0  0  0
    6.9840   12.5640   -0.8900 H   0  0  0  0  0  0  0  0  0  0  0  0
    9.1140   11.4740   -0.8900 H   0  0  0  0  0  0  0  0  0  0  0  0
    9.1140   11.4740    0.8900 H   0  0  0  0  0  0  0  0  0  0  0  0
    9.2340   13.8630    0.8900 H   0  0  0  0  0  0  0  0  0  0  0  0
    9.2340   13.8630   -0.8900 H   0  0  0  0  0  0  0  0  0  0  0  0
   11.3640   12.7730   -0.8900 H   0  0  0  0  0  0  0  0  0  0  0  0
   11.3640   12.7730    0.8900 H   0  0  0  0  0  0  0  0  0  0  0  0
   13.8040   13.7420    0.0000 H   0  0  0  0  0  0  0  0  0  0  0  0
   13.8040   15.4920    0.0000 H   0  0  0  0  0  0  0  0  0  0  0  0
  1  2  1  0  0  0  0
  1 11  1  0  0  0  0
  1 12  1  0  0  0  0
  1 13  1  0  0  0  0
  2  3  1  0  0  0  0
  2 14  1  0  0  0  0
  2 15  1  0  0  0  0
  3  4  1  0  0  0  0
  3 16  1  0  0  0  0
  3 17  1  0  0  0  0
  4  5  1  0  0  0  0
  4 18  1  0  0  0  0
  4 19  1  0  0  0  0
  5  6  1  0  0  0  0
  5 20  1  0  0  0  0
  5 21  1  0  0  0  0
  6  7  1  0  0  0  0
  6 22  1  0  0  0  0
  6 23  1  0  0  0  0
  7  8  1  0  0  0  0
  7 24  1  0  0  0  0
  7 25  1  0  0  0  0
  8  9  2  0  0  0  0
  8 10  1  0  0  0  0
 10 26  1  0  0  0  0
 10 27  1  0  0  0  0
M  END
