6vs3_29.pdb
  MOE2019           3D

 22 21  0  0  0  0  0  0  0  0999 V2000
   -6.4200   13.6560    0.0000 C   0  0  0  0  0  0  0  0  0  0  0  0
   -5.1210   12.9060    0.0000 C   0  0  0  0  0  0  0  0  0  0  0  0
   -3.8220   13.6560    0.0000 O   0  0  0  0  0  0  0  0  0  0  0  0
   -2.5230   12.9060    0.0000 C   0  0  0  0  0  0  0  0  0  0  0  0
   -1.2240   13.6560    0.0000 C   0  0  0  0  0  0  0  0  0  0  0  0
    0.0750   12.9060    0.0000 O   0  0  0  0  0  0  0  0  0  0  0  0
    1.3740   13.6560    0.0000 C   0  0  0  0  0  0  0  0  0  0  0  0
    2.6730   12.9060    0.0000 C   0  0  0  0  0  0  0  0  0  0  0  0
   -6.4200   14.2850    0.8900 H   0  0  0  0  0  0  0  0  0  0  0  0
   -6.4200   14.2850   -0.8900 H   0  0  0  0  0  0  0  0  0  0  0  0
   -7.2900   12.9990    0.0000 H   0  0  0  0  0  0  0  0  0  0  0  0
   -5.1210   12.2770   -0.8900 H   0  0  0  0  0  0  0  0  0  0  0  0
   -5.1210   12.2770    0.8900 H   0  0  0  0  0  0  0  0  0  0  0  0
   -2.5230   12.2770   -0.8900 H   0  0  0  0  0  0  0  0  0  0  0  0
   -2.5230   12.2770    0.8900 H   0  0  0  0  0  0  0  0  0  0  0  0
   -1.2240   14.2850    0.8900 H   0  0  0  0  0  0  0  0  0  0  0  0
   -1.2240   14.2850   -0.8900 H   0  0  0  0  0  0  0  0  0  0  0  0
    1.3740   14.2850    0.8900 H   0  0  0  0  0  0  0  0  0  0  0  0
    1.3740   14.2850   -0.8900 H   0  0  0  0  0  0  0  0  0  0  0  0
    2.6730   12.2770   -0.8900 H   0  0  0  0  0  0  0  0  0  0  0  0
    3.5430   13.5630    0.0000 H   0  0  0  0  0  0  0  0  0  0  0  0
    2.6730   12.2770    0.8900 H   0  0  0  0  0  0  0  0  0  0  0  0
  1  2  1  0  0  0  0
  1  9  1  0  0  0  0
  1 10  1  0  0  0  0
  1 11  1  0  0  0  0
  2  3  1  0  0  0  0
  2 12  1  0  0  0  0
  2 13  1  0  0  0  0
  3  4  1  0  0  0  0
  4  5  1  0  0  0  0
  4 14  1  0  0  0  0
  4 15  1  0  0  0  0
  5  6  1  0  0  0  0
  5 16  1  0  0  0  0
  5 17  1  0  0  0  0
  6  7  1  0  0  0  0
  7  8  1  0  0  0  0
  7 18  1  0  0  0  0
  7 19  1  0  0  0  0
  8 20  1  0  0  0  0
  8 21  1  0  0  0  0
  8 22  1  0  0  0  0
M  END
