6vs3_18.pdb
  MOE2019           3D

 29 28  0  0  0  0  0  0  0  0999 V2000
   15.2050  -16.9020    0.0000 C   0  0  0  0  0  0  0  0  0  0  0  0
   16.5040  -16.1520    0.0000 C   0  0  0  0  0  0  0  0  0  0  0  0
   17.8030  -16.9020    0.0000 O   0  0  0  0  0  0  0  0  0  0  0  0
   19.1020  -16.1520    0.0000 C   0  0  0  0  0  0  0  0  0  0  0  0
   20.4010  -16.9020    0.0000 C   0  0  0  0  0  0  0  0  0  0  0  0
   21.7000  -16.1520    0.0000 O   0  0  0  0  0  0  0  0  0  0  0  0
   23.0000  -16.9020    0.0000 C   0  0  0  0  0  0  0  0  0  0  0  0
   24.2990  -16.1520    0.0000 C   0  0  0  0  0  0  0  0  0  0  0  0
   25.5980  -16.9020    0.0000 O   0  0  0  0  0  0  0  0  0  0  0  0
   26.8970  -16.1520    0.0000 C   0  0  0  0  0  0  0  0  0  0  0  0
   28.1960  -16.9020    0.0000 C   0  0  0  0  0  0  0  0  0  0  0  0
   15.2050  -17.5310   -0.8900 H   0  0  0  0  0  0  0  0  0  0  0  0
   15.2050  -17.5310    0.8900 H   0  0  0  0  0  0  0  0  0  0  0  0
   14.3350  -16.2450    0.0000 H   0  0  0  0  0  0  0  0  0  0  0  0
   16.5040  -15.5230    0.8900 H   0  0  0  0  0  0  0  0  0  0  0  0
   16.5040  -15.5230   -0.8900 H   0  0  0  0  0  0  0  0  0  0  0  0
   19.1020  -15.5230    0.8900 H   0  0  0  0  0  0  0  0  0  0  0  0
   19.1020  -15.5230   -0.8900 H   0  0  0  0  0  0  0  0  0  0  0  0
   20.4010  -17.5310   -0.8900 H   0  0  0  0  0  0  0  0  0  0  0  0
   20.4010  -17.5310    0.8900 H   0  0  0  0  0  0  0  0  0  0  0  0
   23.0000  -17.5310   -0.8900 H   0  0  0  0  0  0  0  0  0  0  0  0
   23.0000  -17.5310    0.8900 H   0  0  0  0  0  0  0  0  0  0  0  0
   24.2990  -15.5230    0.8900 H   0  0  0  0  0  0  0  0  0  0  0  0
   24.2990  -15.5230   -0.8900 H   0  0  0  0  0  0  0  0  0  0  0  0
   26.8970  -15.5230    0.8900 H   0  0  0  0  0  0  0  0  0  0  0  0
   26.8970  -15.5230   -0.8900 H   0  0  0  0  0  0  0  0  0  0  0  0
   28.1960  -17.5310   -0.8900 H   0  0  0  0  0  0  0  0  0  0  0  0
   29.0660  -16.2450    0.0000 H   0  0  0  0  0  0  0  0  0  0  0  0
   28.1960  -17.5310    0.8900 H   0  0  0  0  0  0  0  0  0  0  0  0
  1  2  1  0  0  0  0
  1 12  1  0  0  0  0
  1 13  1  0  0  0  0
  1 14  1  0  0  0  0
  2  3  1  0  0  0  0
  2 15  1  0  0  0  0
  2 16  1  0  0  0  0
  3  4  1  0  0  0  0
  4  5  1  0  0  0  0
  4 17  1  0  0  0  0
  4 18  1  0  0  0  0
  5  6  1  0  0  0  0
  5 19  1  0  0  0  0
  5 20  1  0  0  0  0
  6  7  1  0  0  0  0
  7  8  1  0  0  0  0
  7 21  1  0  0  0  0
  7 22  1  0  0  0  0
  8  9  1  0  0  0  0
  8 23  1  0  0  0  0
  8 24  1  0  0  0  0
  9 10  1  0  0  0  0
 10 11  1  0  0  0  0
 10 25  1  0  0  0  0
 10 26  1  0  0  0  0
 11 27  1  0  0  0  0
 11 28  1  0  0  0  0
 11 29  1  0  0  0  0
M  END
