6vs3_16.pdb
  MOE2019           3D

 31 30  0  0  0  0  0  0  0  0999 V2000
   -3.4760   14.4170    0.0000 C   0  0  0  0  0  0  0  0  0  0  0  0
   -2.1770   15.1670    0.0000 C   0  0  0  0  0  0  0  0  0  0  0  0
   -0.8780   14.4170    0.0000 O   0  0  0  0  0  0  0  0  0  0  0  0
    0.4210   15.1670    0.0000 C   0  0  0  0  0  0  0  0  0  0  0  0
    1.7200   14.4170    0.0000 C   0  0  0  0  0  0  0  0  0  0  0  0
    3.0190   15.1670    0.0000 O   0  0  0  0  0  0  0  0  0  0  0  0
    4.3180   14.4170    0.0000 C   0  0  0  0  0  0  0  0  0  0  0  0
    5.6170   15.1670    0.0000 C   0  0  0  0  0  0  0  0  0  0  0  0
    6.9160   14.4170    0.0000 O   0  0  0  0  0  0  0  0  0  0  0  0
    8.2160   15.1670    0.0000 C   0  0  0  0  0  0  0  0  0  0  0  0
    9.5150   14.4170    0.0000 C   0  0  0  0  0  0  0  0  0  0  0  0
   10.8140   15.1670    0.0000 N   0  0  0  0  0  0  0  0  0  0  0  0
   -3.4760   13.7880   -0.8900 H   0  0  0  0  0  0  0  0  0  0  0  0
   -3.4760   13.7880    0.8900 H   0  0  0  0  0  0  0  0  0  0  0  0
   -4.3460   15.0740    0.0000 H   0  0  0  0  0  0  0  0  0  0  0  0
   -2.1770   15.7960    0.8900 H   0  0  0  0  0  0  0  0  0  0  0  0
   -2.1770   15.7960   -0.8900 H   0  0  0  0  0  0  0  0  0  0  0  0
    0.4210   15.7960    0.8900 H   0  0  0  0  0  0  0  0  0  0  0  0
    0.4210   15.7960   -0.8900 H   0  0  0  0  0  0  0  0  0  0  0  0
    1.7200   13.7880   -0.8900 H   0  0  0  0  0  0  0  0  0  0  0  0
    1.7200   13.7880    0.8900 H   0  0  0  0  0  0  0  0  0  0  0  0
    4.3180   13.7880   -0.8900 H   0  0  0  0  0  0  0  0  0  0  0  0
    4.3180   13.7880    0.8900 H   0  0  0  0  0  0  0  0  0  0  0  0
    5.6170   15.7960    0.8900 H   0  0  0  0  0  0  0  0  0  0  0  0
    5.6170   15.7960   -0.8900 H   0  0  0  0  0  0  0  0  0  0  0  0
    8.2160   15.7960    0.8900 H   0  0  0  0  0  0  0  0  0  0  0  0
    8.2160   15.7960   -0.8900 H   0  0  0  0  0  0  0  0  0  0  0  0
    9.5150   13.7880   -0.8900 H   0  0  0  0  0  0  0  0  0  0  0  0
    9.5150   13.7880    0.8900 H   0  0  0  0  0  0  0  0  0  0  0  0
   10.8140   16.1770    0.0000 H   0  0  0  0  0  0  0  0  0  0  0  0
   11.6890   14.6620    0.0000 H   0  0  0  0  0  0  0  0  0  0  0  0
  1  2  1  0  0  0  0
  1 13  1  0  0  0  0
  1 14  1  0  0  0  0
  1 15  1  0  0  0  0
  2  3  1  0  0  0  0
  2 16  1  0  0  0  0
  2 17  1  0  0  0  0
  3  4  1  0  0  0  0
  4  5  1  0  0  0  0
  4 18  1  0  0  0  0
  4 19  1  0  0  0  0
  5  6  1  0  0  0  0
  5 20  1  0  0  0  0
  5 21  1  0  0  0  0
  6  7  1  0  0  0  0
  7  8  1  0  0  0  0
  7 22  1  0  0  0  0
  7 23  1  0  0  0  0
  8  9  1  0  0  0  0
  8 24  1  0  0  0  0
  8 25  1  0  0  0  0
  9 10  1  0  0  0  0
 10 11  1  0  0  0  0
 10 26  1  0  0  0  0
 10 27  1  0  0  0  0
 11 12  1  0  0  0  0
 11 28  1  0  0  0  0
 11 29  1  0  0  0  0
 12 30  1  0  0  0  0
 12 31  1  0  0  0  0
M  END
