6w8l_4.pdb
  MOE2019           3D

 23 22  0  0  0  0  0  0  0  0999 V2000
   19.6160  -11.1930    0.0000 C   0  0  0  0  0  0  0  0  0  0  0  0
   18.1180  -11.2730    0.0000 C   0  0  0  0  0  0  0  0  0  0  0  0
   17.2990  -10.0160    0.0000 C   0  0  0  0  0  0  0  0  0  0  0  0
   15.8010  -10.0970    0.0000 C   0  0  0  0  0  0  0  0  0  0  0  0
   14.9830   -8.8400    0.0000 C   0  0  0  0  0  0  0  0  0  0  0  0
   13.4850   -8.9200    0.0000 C   0  0  0  0  0  0  0  0  0  0  0  0
   12.6660   -7.6630    0.0000 C   0  0  0  0  0  0  0  0  0  0  0  0
   19.9010  -10.6320    0.8900 H   0  0  0  0  0  0  0  0  0  0  0  0
   20.0930  -12.1730    0.0000 H   0  0  0  0  0  0  0  0  0  0  0  0
   19.9010  -10.6320   -0.8900 H   0  0  0  0  0  0  0  0  0  0  0  0
   17.8330  -11.8340   -0.8900 H   0  0  0  0  0  0  0  0  0  0  0  0
   17.8330  -11.8340    0.8900 H   0  0  0  0  0  0  0  0  0  0  0  0
   17.5840   -9.4550    0.8900 H   0  0  0  0  0  0  0  0  0  0  0  0
   17.5840   -9.4550   -0.8900 H   0  0  0  0  0  0  0  0  0  0  0  0
   15.5160  -10.6580   -0.8900 H   0  0  0  0  0  0  0  0  0  0  0  0
   15.5160  -10.6580    0.8900 H   0  0  0  0  0  0  0  0  0  0  0  0
   15.2680   -8.2790   -0.8900 H   0  0  0  0  0  0  0  0  0  0  0  0
   15.2680   -8.2790    0.8900 H   0  0  0  0  0  0  0  0  0  0  0  0
   13.2000   -9.4810    0.8900 H   0  0  0  0  0  0  0  0  0  0  0  0
   13.2000   -9.4810   -0.8900 H   0  0  0  0  0  0  0  0  0  0  0  0
   12.9510   -7.1020   -0.8900 H   0  0  0  0  0  0  0  0  0  0  0  0
   12.9510   -7.1020    0.8900 H   0  0  0  0  0  0  0  0  0  0  0  0
   11.5930   -7.8550    0.0000 H   0  0  0  0  0  0  0  0  0  0  0  0
  1  2  1  0  0  0  0
  1  8  1  0  0  0  0
  1  9  1  0  0  0  0
  1 10  1  0  0  0  0
  2  3  1  0  0  0  0
  2 11  1  0  0  0  0
  2 12  1  0  0  0  0
  3  4  1  0  0  0  0
  3 13  1  0  0  0  0
  3 14  1  0  0  0  0
  4  5  1  0  0  0  0
  4 15  1  0  0  0  0
  4 16  1  0  0  0  0
  5  6  1  0  0  0  0
  5 17  1  0  0  0  0
  5 18  1  0  0  0  0
  6  7  1  0  0  0  0
  6 19  1  0  0  0  0
  6 20  1  0  0  0  0
  7 21  1  0  0  0  0
  7 22  1  0  0  0  0
  7 23  1  0  0  0  0
M  END
