6xjk_14.pdb
  MOE2019           3D

 45 44  0  0  0  0  0  0  0  0999 V2000
   16.0570   25.1090    0.0000 O   0  0  0  0  0  0  0  0  0  0  0  0
   16.0700   25.6680   -0.7800 H   0  0  0  0  0  0  0  0  0  0  0  0
   14.7570   24.3610    0.0000 C   0  0  0  0  0  0  0  0  0  0  0  0
   13.4590   25.1120    0.0000 C   0  0  0  0  0  0  0  0  0  0  0  0
   12.1590   24.3640    0.0000 O   0  0  0  0  0  0  0  0  0  0  0  0
   10.8610   25.1160    0.0000 C   0  0  0  0  0  0  0  0  0  0  0  0
    9.5610   24.3680    0.0000 C   0  0  0  0  0  0  0  0  0  0  0  0
    8.2630   25.1200    0.0000 O   0  0  0  0  0  0  0  0  0  0  0  0
    6.9630   24.3720    0.0000 C   0  0  0  0  0  0  0  0  0  0  0  0
    5.6650   25.1230    0.0000 C   0  0  0  0  0  0  0  0  0  0  0  0
    4.3650   24.3750    0.0000 O   0  0  0  0  0  0  0  0  0  0  0  0
    3.0670   25.1270    0.0000 C   0  0  0  0  0  0  0  0  0  0  0  0
    1.7670   24.3790    0.0000 C   0  0  0  0  0  0  0  0  0  0  0  0
    0.4690   25.1310    0.0000 O   0  0  0  0  0  0  0  0  0  0  0  0
   -0.8310   24.3820    0.0000 C   0  0  0  0  0  0  0  0  0  0  0  0
   -2.1290   25.1340    0.0000 C   0  0  0  0  0  0  0  0  0  0  0  0
   -3.4290   24.3860    0.0000 O   0  0  0  0  0  0  0  0  0  0  0  0
   -4.7270   25.1380    0.0000 C   0  0  0  0  0  0  0  0  0  0  0  0
   -6.0270   24.3900    0.0000 C   0  0  0  0  0  0  0  0  0  0  0  0
   -7.3250   25.1410    0.0000 O   0  0  0  0  0  0  0  0  0  0  0  0
   -8.0350   24.4940    0.0000 H   0  0  0  0  0  0  0  0  0  0  0  0
   14.7560   23.7320   -0.8900 H   0  0  0  0  0  0  0  0  0  0  0  0
   14.7560   23.7320    0.8900 H   0  0  0  0  0  0  0  0  0  0  0  0
   13.4600   25.7410   -0.8900 H   0  0  0  0  0  0  0  0  0  0  0  0
   13.4600   25.7410    0.8900 H   0  0  0  0  0  0  0  0  0  0  0  0
   10.8620   25.7450    0.8900 H   0  0  0  0  0  0  0  0  0  0  0  0
   10.8620   25.7450   -0.8900 H   0  0  0  0  0  0  0  0  0  0  0  0
    9.5600   23.7390    0.8900 H   0  0  0  0  0  0  0  0  0  0  0  0
    9.5600   23.7390   -0.8900 H   0  0  0  0  0  0  0  0  0  0  0  0
    6.9620   23.7430   -0.8900 H   0  0  0  0  0  0  0  0  0  0  0  0
    6.9620   23.7430    0.8900 H   0  0  0  0  0  0  0  0  0  0  0  0
    5.6660   25.7520   -0.8900 H   0  0  0  0  0  0  0  0  0  0  0  0
    5.6660   25.7520    0.8900 H   0  0  0  0  0  0  0  0  0  0  0  0
    3.0680   25.7560    0.8900 H   0  0  0  0  0  0  0  0  0  0  0  0
    3.0680   25.7560   -0.8900 H   0  0  0  0  0  0  0  0  0  0  0  0
    1.7660   23.7500    0.8900 H   0  0  0  0  0  0  0  0  0  0  0  0
    1.7660   23.7500   -0.8900 H   0  0  0  0  0  0  0  0  0  0  0  0
   -0.8320   23.7530   -0.8900 H   0  0  0  0  0  0  0  0  0  0  0  0
   -0.8320   23.7530    0.8900 H   0  0  0  0  0  0  0  0  0  0  0  0
   -2.1280   25.7630   -0.8900 H   0  0  0  0  0  0  0  0  0  0  0  0
   -2.1280   25.7630    0.8900 H   0  0  0  0  0  0  0  0  0  0  0  0
   -4.7260   25.7670    0.8900 H   0  0  0  0  0  0  0  0  0  0  0  0
   -4.7260   25.7670   -0.8900 H   0  0  0  0  0  0  0  0  0  0  0  0
   -6.0280   23.7610    0.8900 H   0  0  0  0  0  0  0  0  0  0  0  0
   -6.0280   23.7610   -0.8900 H   0  0  0  0  0  0  0  0  0  0  0  0
  1  2  1  0  0  0  0
  1  3  1  0  0  0  0
  3  4  1  0  0  0  0
  3 22  1  0  0  0  0
  3 23  1  0  0  0  0
  4  5  1  0  0  0  0
  4 24  1  0  0  0  0
  4 25  1  0  0  0  0
  5  6  1  0  0  0  0
  6  7  1  0  0  0  0
  6 26  1  0  0  0  0
  6 27  1  0  0  0  0
  7  8  1  0  0  0  0
  7 28  1  0  0  0  0
  7 29  1  0  0  0  0
  8  9  1  0  0  0  0
  9 10  1  0  0  0  0
  9 30  1  0  0  0  0
  9 31  1  0  0  0  0
 10 11  1  0  0  0  0
 10 32  1  0  0  0  0
 10 33  1  0  0  0  0
 11 12  1  0  0  0  0
 12 13  1  0  0  0  0
 12 34  1  0  0  0  0
 12 35  1  0  0  0  0
 13 14  1  0  0  0  0
 13 36  1  0  0  0  0
 13 37  1  0  0  0  0
 14 15  1  0  0  0  0
 15 16  1  0  0  0  0
 15 38  1  0  0  0  0
 15 39  1  0  0  0  0
 16 17  1  0  0  0  0
 16 40  1  0  0  0  0
 16 41  1  0  0  0  0
 17 18  1  0  0  0  0
 18 19  1  0  0  0  0
 18 42  1  0  0  0  0
 18 43  1  0  0  0  0
 19 20  1  0  0  0  0
 19 44  1  0  0  0  0
 19 45  1  0  0  0  0
 20 21  1  0  0  0  0
M  END
