6ybl_1.pdb
  MOE2019           3D

 50 49  0  0  0  0  0  0  0  0999 V2000
   -1.9740   21.2360    0.0000 C   0  0  0  0  0  0  0  0  0  0  0  0
   -0.4750   21.3030    0.0000 C   0  0  0  0  0  0  0  0  0  0  0  0
    0.2160   22.6340    0.0000 O   0  0  0  0  0  0  0  0  0  0  0  0
    0.3320   20.0380    0.0000 N   0  0  0  0  0  0  0  0  0  0  0  0
    1.8310   20.1050    0.0000 C   0  0  0  0  0  0  0  0  0  0  0  0
    2.6380   18.8410    0.0000 C   0  0  0  0  0  0  0  0  0  0  0  0
    4.1360   18.9080    0.0000 C   0  0  0  0  0  0  0  0  0  0  0  0
    4.9440   17.6440    0.0000 O   0  0  0  0  0  0  0  0  0  0  0  0
    6.4420   17.7110    0.0000 C   0  0  0  0  0  0  0  0  0  0  0  0
    7.2490   16.4460    0.0000 C   0  0  0  0  0  0  0  0  0  0  0  0
    8.7480   16.5130    0.0000 O   0  0  0  0  0  0  0  0  0  0  0  0
    9.5550   15.2490    0.0000 C   0  0  0  0  0  0  0  0  0  0  0  0
   11.0540   15.3160    0.0000 C   0  0  0  0  0  0  0  0  0  0  0  0
   11.8610   14.0520    0.0000 O   0  0  0  0  0  0  0  0  0  0  0  0
   13.3590   14.1190    0.0000 C   0  0  0  0  0  0  0  0  0  0  0  0
   14.0510   15.4500    0.0000 C   0  0  0  0  0  0  0  0  0  0  0  0
   15.5490   15.5170    0.0000 C   0  0  0  0  0  0  0  0  0  0  0  0
   16.2400   16.8480    0.0000 N   0  0  0  0  0  0  0  0  0  0  0  0
   17.7390   16.9150    0.0000 C   0  0  0  0  0  0  0  0  0  0  0  0
   18.5460   15.6510    0.0000 O   0  0  0  0  0  0  0  0  0  0  0  0
   18.4300   18.2460    0.0000 C   0  0  0  0  0  0  0  0  0  0  0  0
   19.9290   18.3130    0.0000 O   0  0  0  0  0  0  0  0  0  0  0  0
   20.2400   17.8490    0.7810 H   0  0  0  0  0  0  0  0  0  0  0  0
   -2.2640   20.6770   -0.8900 H   0  0  0  0  0  0  0  0  0  0  0  0
   -2.4430   22.2200    0.0000 H   0  0  0  0  0  0  0  0  0  0  0  0
   -2.2640   20.6770    0.8900 H   0  0  0  0  0  0  0  0  0  0  0  0
   -0.1340   19.1420    0.0000 H   0  0  0  0  0  0  0  0  0  0  0  0
    2.1210   20.6640    0.8900 H   0  0  0  0  0  0  0  0  0  0  0  0
    2.1210   20.6640   -0.8900 H   0  0  0  0  0  0  0  0  0  0  0  0
    2.3480   18.2820   -0.8900 H   0  0  0  0  0  0  0  0  0  0  0  0
    2.3480   18.2820    0.8900 H   0  0  0  0  0  0  0  0  0  0  0  0
    4.4260   19.4670    0.8900 H   0  0  0  0  0  0  0  0  0  0  0  0
    4.4260   19.4670   -0.8900 H   0  0  0  0  0  0  0  0  0  0  0  0
    6.7320   18.2690    0.8900 H   0  0  0  0  0  0  0  0  0  0  0  0
    6.7320   18.2690   -0.8900 H   0  0  0  0  0  0  0  0  0  0  0  0
    6.9590   15.8880   -0.8900 H   0  0  0  0  0  0  0  0  0  0  0  0
    6.9590   15.8880    0.8900 H   0  0  0  0  0  0  0  0  0  0  0  0
    9.2650   14.6900   -0.8900 H   0  0  0  0  0  0  0  0  0  0  0  0
    9.2650   14.6900    0.8900 H   0  0  0  0  0  0  0  0  0  0  0  0
   11.3440   15.8750    0.8900 H   0  0  0  0  0  0  0  0  0  0  0  0
   11.3440   15.8750   -0.8900 H   0  0  0  0  0  0  0  0  0  0  0  0
   13.6980   13.5890   -0.8900 H   0  0  0  0  0  0  0  0  0  0  0  0
   13.6980   13.5890    0.8900 H   0  0  0  0  0  0  0  0  0  0  0  0
   13.7120   15.9800    0.8900 H   0  0  0  0  0  0  0  0  0  0  0  0
   13.7120   15.9800   -0.8900 H   0  0  0  0  0  0  0  0  0  0  0  0
   15.8880   14.9870   -0.8900 H   0  0  0  0  0  0  0  0  0  0  0  0
   15.8880   14.9870    0.8900 H   0  0  0  0  0  0  0  0  0  0  0  0
   15.6960   17.6990    0.0000 H   0  0  0  0  0  0  0  0  0  0  0  0
   18.0910   18.7760    0.8900 H   0  0  0  0  0  0  0  0  0  0  0  0
   18.0910   18.7760   -0.8900 H   0  0  0  0  0  0  0  0  0  0  0  0
  1  2  1  0  0  0  0
  1 24  1  0  0  0  0
  1 25  1  0  0  0  0
  1 26  1  0  0  0  0
  2  3  2  0  0  0  0
  2  4  1  0  0  0  0
  4  5  1  0  0  0  0
  4 27  1  0  0  0  0
  5  6  1  0  0  0  0
  5 28  1  0  0  0  0
  5 29  1  0  0  0  0
  6  7  1  0  0  0  0
  6 30  1  0  0  0  0
  6 31  1  0  0  0  0
  7  8  1  0  0  0  0
  7 32  1  0  0  0  0
  7 33  1  0  0  0  0
  8  9  1  0  0  0  0
  9 10  1  0  0  0  0
  9 34  1  0  0  0  0
  9 35  1  0  0  0  0
 10 11  1  0  0  0  0
 10 36  1  0  0  0  0
 10 37  1  0  0  0  0
 11 12  1  0  0  0  0
 12 13  1  0  0  0  0
 12 38  1  0  0  0  0
 12 39  1  0  0  0  0
 13 14  1  0  0  0  0
 13 40  1  0  0  0  0
 13 41  1  0  0  0  0
 14 15  1  0  0  0  0
 15 16  1  0  0  0  0
 15 42  1  0  0  0  0
 15 43  1  0  0  0  0
 16 17  1  0  0  0  0
 16 44  1  0  0  0  0
 16 45  1  0  0  0  0
 17 18  1  0  0  0  0
 17 46  1  0  0  0  0
 17 47  1  0  0  0  0
 18 19  1  0  0  0  0
 18 48  1  0  0  0  0
 19 20  2  0  0  0  0
 19 21  1  0  0  0  0
 21 22  1  0  0  0  0
 21 49  1  0  0  0  0
 21 50  1  0  0  0  0
 22 23  1  0  0  0  0
M  END
