6yoj_2.pdb
  MOE2019           3D

 12 11  0  0  0  0  0  0  0  0999 V2000
    2.0660   14.4220    0.0000 C   0  0  0  0  0  0  0  0  0  0  0  0
    3.3650   13.6720    0.0000 C   0  0  0  0  0  0  0  0  0  0  0  0
    4.6640   14.4220    0.0000 C   0  0  0  0  0  0  0  0  0  0  0  0
    5.9630   13.6720    0.0000 O   0  0  0  0  0  0  0  0  0  0  0  0
    6.6720   14.3190    0.0000 H   0  0  0  0  0  0  0  0  0  0  0  0
    2.0660   15.0510   -0.8900 H   0  0  0  0  0  0  0  0  0  0  0  0
    1.1960   13.7650    0.0000 H   0  0  0  0  0  0  0  0  0  0  0  0
    2.0660   15.0510    0.8900 H   0  0  0  0  0  0  0  0  0  0  0  0
    3.3650   13.0430    0.8900 H   0  0  0  0  0  0  0  0  0  0  0  0
    3.3650   13.0430   -0.8900 H   0  0  0  0  0  0  0  0  0  0  0  0
    4.6640   15.0510    0.8900 H   0  0  0  0  0  0  0  0  0  0  0  0
    4.6640   15.0510   -0.8900 H   0  0  0  0  0  0  0  0  0  0  0  0
  1  2  1  0  0  0  0
  1  6  1  0  0  0  0
  1  7  1  0  0  0  0
  1  8  1  0  0  0  0
  2  3  1  0  0  0  0
  2  9  1  0  0  0  0
  2 10  1  0  0  0  0
  3  4  1  0  0  0  0
  3 11  1  0  0  0  0
  3 12  1  0  0  0  0
  4  5  1  0  0  0  0
M  END
