6z45_2.pdb
  MOE2019           3D

 36 35  0  0  0  0  0  0  0  0999 V2000
  -10.7280   -9.4560    0.0000 C   0  0  0  0  0  0  0  0  0  0  0  0
  -11.4840  -10.7520    0.0000 C   0  0  0  0  0  0  0  0  0  0  0  0
  -10.7400  -12.0540    0.0000 O   0  0  0  0  0  0  0  0  0  0  0  0
  -12.9840  -10.7450    0.0000 N   0  0  0  0  0  0  0  0  0  0  0  0
  -13.7280   -9.4420    0.0000 C   0  0  0  0  0  0  0  0  0  0  0  0
  -15.2280   -9.4350    0.0000 C   0  0  0  0  0  0  0  0  0  0  0  0
  -15.9710   -8.1330    0.0000 O   0  0  0  0  0  0  0  0  0  0  0  0
  -17.4710   -8.1260    0.0000 C   0  0  0  0  0  0  0  0  0  0  0  0
  -18.2150   -6.8230    0.0000 C   0  0  0  0  0  0  0  0  0  0  0  0
  -19.7150   -6.8160    0.0000 O   0  0  0  0  0  0  0  0  0  0  0  0
  -20.4590   -5.5130    0.0000 C   0  0  0  0  0  0  0  0  0  0  0  0
  -21.9590   -5.5060    0.0000 C   0  0  0  0  0  0  0  0  0  0  0  0
  -22.7030   -4.2040    0.0000 O   0  0  0  0  0  0  0  0  0  0  0  0
  -24.2030   -4.1970    0.0000 C   0  0  0  0  0  0  0  0  0  0  0  0
  -24.9470   -2.8940    0.0000 C   0  0  0  0  0  0  0  0  0  0  0  0
  -11.0400   -8.9100   -0.8900 H   0  0  0  0  0  0  0  0  0  0  0  0
  -11.0400   -8.9100    0.8900 H   0  0  0  0  0  0  0  0  0  0  0  0
   -9.6470   -9.5950    0.0000 H   0  0  0  0  0  0  0  0  0  0  0  0
  -13.4930  -11.6170    0.0000 H   0  0  0  0  0  0  0  0  0  0  0  0
  -13.4110   -8.8980   -0.8900 H   0  0  0  0  0  0  0  0  0  0  0  0
  -13.4110   -8.8980    0.8900 H   0  0  0  0  0  0  0  0  0  0  0  0
  -15.5450   -9.9780    0.8900 H   0  0  0  0  0  0  0  0  0  0  0  0
  -15.5450   -9.9780   -0.8900 H   0  0  0  0  0  0  0  0  0  0  0  0
  -17.7880   -8.6700    0.8900 H   0  0  0  0  0  0  0  0  0  0  0  0
  -17.7880   -8.6700   -0.8900 H   0  0  0  0  0  0  0  0  0  0  0  0
  -17.8980   -6.2790   -0.8900 H   0  0  0  0  0  0  0  0  0  0  0  0
  -17.8980   -6.2790    0.8900 H   0  0  0  0  0  0  0  0  0  0  0  0
  -20.1420   -4.9690   -0.8900 H   0  0  0  0  0  0  0  0  0  0  0  0
  -20.1420   -4.9690    0.8900 H   0  0  0  0  0  0  0  0  0  0  0  0
  -22.2760   -6.0500    0.8900 H   0  0  0  0  0  0  0  0  0  0  0  0
  -22.2760   -6.0500   -0.8900 H   0  0  0  0  0  0  0  0  0  0  0  0
  -24.5200   -4.7410    0.8900 H   0  0  0  0  0  0  0  0  0  0  0  0
  -24.5200   -4.7410   -0.8900 H   0  0  0  0  0  0  0  0  0  0  0  0
  -24.6300   -2.3500   -0.8900 H   0  0  0  0  0  0  0  0  0  0  0  0
  -26.0290   -3.0240    0.0000 H   0  0  0  0  0  0  0  0  0  0  0  0
  -24.6300   -2.3500    0.8900 H   0  0  0  0  0  0  0  0  0  0  0  0
  1  2  1  0  0  0  0
  1 16  1  0  0  0  0
  1 17  1  0  0  0  0
  1 18  1  0  0  0  0
  2  3  2  0  0  0  0
  2  4  1  0  0  0  0
  4  5  1  0  0  0  0
  4 19  1  0  0  0  0
  5  6  1  0  0  0  0
  5 20  1  0  0  0  0
  5 21  1  0  0  0  0
  6  7  1  0  0  0  0
  6 22  1  0  0  0  0
  6 23  1  0  0  0  0
  7  8  1  0  0  0  0
  8  9  1  0  0  0  0
  8 24  1  0  0  0  0
  8 25  1  0  0  0  0
  9 10  1  0  0  0  0
  9 26  1  0  0  0  0
  9 27  1  0  0  0  0
 10 11  1  0  0  0  0
 11 12  1  0  0  0  0
 11 28  1  0  0  0  0
 11 29  1  0  0  0  0
 12 13  1  0  0  0  0
 12 30  1  0  0  0  0
 12 31  1  0  0  0  0
 13 14  1  0  0  0  0
 14 15  1  0  0  0  0
 14 32  1  0  0  0  0
 14 33  1  0  0  0  0
 15 34  1  0  0  0  0
 15 35  1  0  0  0  0
 15 36  1  0  0  0  0
M  END
