6z45_13.pdb
  MOE2019           3D

 33 33  0  0  0  0  0  0  0  0999 V2000
   -6.2990    6.6450    0.0000 O   0  0  0  0  0  0  0  0  0  0  0  0
   -6.2190    8.1430    0.0000 C   0  0  0  0  0  0  0  0  0  0  0  0
   -7.4760    8.9610    0.0000 N   0  0  0  0  0  0  0  0  0  0  0  0
   -4.8820    8.8220    0.0000 C   0  0  0  0  0  0  0  0  0  0  0  0
   -3.6240    8.0040    0.0000 C   0  0  0  0  0  0  0  0  0  0  0  0
   -2.2870    8.6840    0.0000 C   0  0  0  0  0  0  0  0  0  0  0  0
   -1.0300    7.8650    0.0000 C   0  0  0  0  0  0  0  0  0  0  0  0
    0.3070    8.5450    0.0000 C   0  0  0  0  0  0  0  0  0  0  0  0
    1.5640    7.7260    0.0000 C   0  0  0  0  0  0  0  0  0  0  0  0
    2.9020    8.4060    0.0000 C   0  0  0  0  0  0  0  0  0  0  0  0
    4.1590    7.5880    0.0000 N   0  0  0  0  0  0  0  0  0  0  0  0
    4.2350    6.0900    0.0000 N   0  0  0  0  0  0  0  0  0  0  0  0
    5.6840    5.7000    0.0000 N   0  0  0  0  0  0  0  0  0  0  0  0
    6.5020    6.9570    0.0000 C   0  0  0  0  0  0  0  0  0  0  0  0
    7.5810    7.0120    0.0000 H   0  0  0  0  0  0  0  0  0  0  0  0
    5.5600    8.1240    0.0000 C   0  0  0  0  0  0  0  0  0  0  0  0
   -7.4220    9.9700    0.0000 H   0  0  0  0  0  0  0  0  0  0  0  0
   -8.3760    8.5030    0.0000 H   0  0  0  0  0  0  0  0  0  0  0  0
   -4.8480    9.4500    0.8900 H   0  0  0  0  0  0  0  0  0  0  0  0
   -4.8480    9.4500   -0.8900 H   0  0  0  0  0  0  0  0  0  0  0  0
   -3.6570    7.3760   -0.8900 H   0  0  0  0  0  0  0  0  0  0  0  0
   -3.6570    7.3760    0.8900 H   0  0  0  0  0  0  0  0  0  0  0  0
   -2.2530    9.3120    0.8900 H   0  0  0  0  0  0  0  0  0  0  0  0
   -2.2530    9.3120   -0.8900 H   0  0  0  0  0  0  0  0  0  0  0  0
   -1.0640    7.2370   -0.8900 H   0  0  0  0  0  0  0  0  0  0  0  0
   -1.0640    7.2370    0.8900 H   0  0  0  0  0  0  0  0  0  0  0  0
    0.3410    9.1730    0.8900 H   0  0  0  0  0  0  0  0  0  0  0  0
    0.3410    9.1730   -0.8900 H   0  0  0  0  0  0  0  0  0  0  0  0
    1.5300    7.0980   -0.8900 H   0  0  0  0  0  0  0  0  0  0  0  0
    1.5300    7.0980    0.8900 H   0  0  0  0  0  0  0  0  0  0  0  0
    2.9360    9.0340    0.8900 H   0  0  0  0  0  0  0  0  0  0  0  0
    2.9360    9.0340   -0.8900 H   0  0  0  0  0  0  0  0  0  0  0  0
    5.8410    9.1670    0.0000 H   0  0  0  0  0  0  0  0  0  0  0  0
  1  2  2  0  0  0  0
  2  3  1  0  0  0  0
  2  4  1  0  0  0  0
  3 17  1  0  0  0  0
  3 18  1  0  0  0  0
  4  5  1  0  0  0  0
  4 19  1  0  0  0  0
  4 20  1  0  0  0  0
  5  6  1  0  0  0  0
  5 21  1  0  0  0  0
  5 22  1  0  0  0  0
  6  7  1  0  0  0  0
  6 23  1  0  0  0  0
  6 24  1  0  0  0  0
  7  8  1  0  0  0  0
  7 25  1  0  0  0  0
  7 26  1  0  0  0  0
  8  9  1  0  0  0  0
  8 27  1  0  0  0  0
  8 28  1  0  0  0  0
  9 10  1  0  0  0  0
  9 29  1  0  0  0  0
  9 30  1  0  0  0  0
 10 11  1  0  0  0  0
 10 31  1  0  0  0  0
 10 32  1  0  0  0  0
 11 12  1  0  0  0  0
 11 16  1  0  0  0  0
 12 13  2  0  0  0  0
 13 14  1  0  0  0  0
 14 15  1  0  0  0  0
 14 16  2  0  0  0  0
 16 33  1  0  0  0  0
M  END
